311
Coordinates from ORCA-job input-L3-gmt
C     -8.8339629086    0.3012576300    0.5337579511
C     -8.9285365502   -1.1658440497    0.7798368957
C     -8.3406586985    4.3724033021   -1.1785230296
C     -8.5475845771    3.0456082199   -0.4437057421
C     -9.7720269667    2.2799844098   -0.7589156991
C     -9.7486826558    0.7886756857   -0.5760292955
C     -6.6324614421   -4.3296081835    1.1931015101
C     -6.8426324023   -5.6483196159    0.4566407537
C     -6.3538944931    0.1791915309    1.3764259001
C     -6.4183037949   -1.3532030136    1.2962298340
C     -7.7815195074   -1.9707585058    1.2508795498
C     -7.8822686046   -3.4624052892    1.1405402760
C     -5.8962450132    4.1589760258   -0.7834530848
C     -6.0542265158    2.7749406344   -0.2671615011
C     -7.3820946493    2.3608605608    0.2189232491
C     -7.5315265505    0.9692746465    0.7582361685
C     -5.4361999393    8.5719866589   -0.7488064691
C     -5.5862909342    7.0855996055   -0.6430846833
C     -6.9433016330    6.4872822028   -0.6489126240
C     -7.0795027233    5.0210164122   -0.6595000812
C     -4.3306329721   -8.1633748888   -1.1855401615
C     -4.2032877271   -4.4851893006    0.5250606234
C     -4.3440891127   -5.9559023221    0.7059799900
C     -5.6367735074   -6.4690390494    0.1718091866
C     -5.5588655787   -7.3364764432   -1.0268194198
C     -3.7326606941   -0.1140321226    0.8835805253
C     -3.9333345074   -1.5580406936    0.5986417541
C     -5.2158382914   -2.2055306048    0.9797954656
C     -5.4111078520   -3.6308056519    0.5950666689
C     -3.3865332024    4.0906982861   -0.1659873025
C     -3.4779148406    2.5715068793   -0.1228605053
C     -4.8466824458    1.9644005211    0.0615903447
C     -4.9675000369    0.7465460503    0.9266154456
C     -3.0435777342    8.2939817892   -0.3460739961
C     -3.0609351366    6.8792197713   -0.8256560482
C     -4.4045163636    6.2371215956   -1.0079987795
C     -4.4944968622    4.7048443117   -1.0711931284
C     -2.7791550308   11.2309610696    0.0224264284
C     -4.0255091305   10.6327477743   -0.5330424746
C     -4.0792612638    9.1875859160   -1.0349873325
C     -1.9810209645   -8.7619667717   -0.7321170662
C     -1.6807079238   -4.7158104355    0.8326831085
C     -1.7335899411   -6.2550747898    0.8929953992
C     -3.1263036072   -6.8362146693    0.6398911947
C     -3.2782625668   -8.2170215197   -0.0646623390
C     -1.2761425962   -0.4000775175    0.5599590970
C     -1.3855249438   -1.8175869985    0.6133149174
C     -2.7242379021   -2.4177498995    0.4553775053
C     -2.8916167430   -3.8625910993    0.7758750889
C     -0.8641502940    3.7925822584   -0.0094999046
C     -1.0118152024    2.3929920428    0.2003329572
C     -2.2822386350    1.7901878903    0.2562233909
C     -2.4141077545    0.4378646232    0.4827794177
C     -0.6349416439    8.0370437230    0.6379898288
C     -0.6391773851    6.6749002578   -0.0146697064
C     -1.8601431649    6.0513054761   -0.5889513590
C     -1.9941654479    4.5331778788   -0.6971293563
C     -0.3529883142   10.9351157983    0.8703389093
C     -1.6808300658   10.3531832605    0.4805845231
C     -1.8251791528    8.8941295073    0.2721479580
C      0.5108686167   -9.2152623151   -0.0890016584
C      0.7381782771   -4.8932692834    0.5410130194
C      0.6667298654   -6.3240633995    0.1639259137
C     -0.6451963257   -6.9491799968    0.1340713373
C     -0.7478472300   -8.4323083082    0.0546252476
C      1.1784871930   -0.6313125261    0.4996738110
C      1.0417614968   -2.0357231788    0.5515293466
C     -0.2661341158   -2.6115560771    0.6034571224
C     -0.4588756381   -4.0568543102    0.2231991070
C      1.5266407983    3.5706414249    0.2861555162
C      1.4230918668    2.1720327154    0.3204621272
C      0.1359916683    1.5843414528    0.3707946695
C      0.0113888435    0.1838787235    0.4969084894
C      1.8968668258    7.9062455490    0.1000721230
C      1.7961787117    6.4390572994   -0.0640246981
C      0.5049349707    5.8292372742    0.4533550426
C      0.3558343574    4.3694091522    0.1822753001
C      2.1708887936   10.7566205179    0.7911125865
C      0.8692627072   10.0417800339    1.1106936552
C      0.6876696980    8.7237821875    0.3796410323
C      2.9023155909   -9.3776258228    0.7238892547
C      3.1509893561   -5.2376193196    0.1441001208
C      3.0633891436   -6.4902628808    0.9537080475
C      1.7188418554   -7.1996586123    0.7983328568
C      1.8616244821   -8.5173435442    0.0313018414
C      3.6300173191   -0.8429160784    0.2693425960
C      3.4598337968   -2.2512147238    0.2858450780
C      2.2168926703   -2.8257941485    0.4481843747
C      2.0736486227   -4.2755293471    0.5611008066
C      3.9227213944    3.3691867438   -0.0793163235
C      3.8567334333    1.9674523580    0.0242615199
C      2.5911599359    1.3714596849    0.2665149350
C      2.4711069616   -0.0383948403    0.3641625325
C      4.3295884676    7.5531582713    0.9040500343
C      4.2329993660    6.1100438026    0.6203270230
C      2.9619853679    5.5865067680    0.1042476660
C      2.8062488127    4.1359566785    0.1769912136
C      4.7462406396   10.4562928349    0.7378518594
C      3.3791332252    9.9350274145    0.4982030668
C      3.1794544508    8.4637048268    0.6126266589
C      5.3536884328   -9.5940071683    1.3137216165
C      5.6717239787   -5.5377296686    0.0341360438
C      5.6903748781   -6.6020511580    1.1924752833
C      4.2975894248   -7.2682505898    1.2739891080
C      4.1313599198   -8.7520784650    1.3093023981
C      6.1244063258   -1.0545110161    0.1406771437
C      5.9639493128   -2.5402268710    0.0529829028
C      4.6019567999   -3.1097270656   -0.0602032577
C      4.5011745228   -4.5956040071    0.0129723557
C      6.3245021513    3.2231661193   -0.8724328987
C      6.2719360446    1.7594388417   -0.5630657441
C      5.0120822419    1.1413781029   -0.0900635559
C      4.9128732373   -0.2157640233    0.0933829102
C      6.8990727470    7.2382273859    0.9201980606
C      6.6967095479    5.9969250850    0.1075774332
C      5.4175971928    5.2969054745    0.2661973474
C      5.1140250884    4.1152388228   -0.6416274335
C      7.2052000090   10.0396069514    1.6163822380
C      5.8879725956    9.5539612429    1.0339061378
C      5.6902294675    8.0919315841    1.1300767488
C      8.1034918493   -5.6912324683   -0.5873046757
C      8.0134264570   -7.0908512892   -0.0090389856
C      6.8703519139   -7.5378104388    0.8437009748
C      6.6900318771   -9.0019882687    1.0223367010
C      8.4461667197   -1.3331484644   -0.8968168992
C      8.4289853173   -2.7464332403   -0.2871803103
C      7.0533956292   -3.4002056764   -0.5693493163
C      7.0264879593   -4.7947335568    0.0688907074
C      8.8737978212    3.0424241940   -1.3796437858
C      8.6759810042    1.4919943963   -1.4496701673
C      7.5718281257    1.0194856364   -0.4612953827
C      7.4618696205   -0.4417076478   -0.1694367946
C      9.3917958064    7.0611975375    0.4513233650
C      9.1716200708    5.6396166945    0.0647932986
C      7.8498719884    5.2631659949   -0.4805619348
C      7.6647348341    3.8906747014   -1.0473274323
C      8.3124408875    9.4007419587    0.7435223024
C      8.2343410114    7.8887204317    0.8666648906
C     11.0296392602   -1.5202652197   -0.3591382528
C     10.9135644941   -3.0049977133   -0.3180412340
C      9.5991704887   -3.6052993524   -0.8125138148
C      9.5019722108   -5.0845033529   -0.3499330652
C     11.4214081583    2.8009984751   -1.1403932025
C     11.2971105255    1.3420350263   -1.2239508017
C      9.9827477472    0.6776070606   -1.3079085392
C      9.8712451992   -0.7652207846   -0.9369527188
C     10.3334395686    4.7817952619   -0.1945214538
C     10.2611698196    3.7351330368   -1.2667999996
C     12.4781819502    0.5617411403   -0.7884835301
C     12.3592052286   -0.8651087840   -0.4006853521
H     -6.1159421458   -7.0288792673   -1.9032726533
O     -9.4621283552    5.2115057540   -0.9637739038
H    -10.4128075428    2.6508388664   -1.5494195705
O     -9.2671674051    0.3332570883   -1.8478400957
H     -7.6679136533   -5.6808206578   -0.2448898297
H     -8.7621425844   -3.8877643721    0.6711559087
H     -6.2984967422    9.1599251836   -1.0447515478
H     -7.8010895070    7.0693804412   -0.9542326980
O     10.5262401911    4.5088328202   -2.4366866481
O     -5.6091243481   -8.7974440821   -0.7521573777
H     -2.8520138552   12.1431084968    0.6009234087
H     -4.9672601766   11.1393037275   -0.3609837579
O     -1.8441653470   -8.1965477824   -2.0509222983
H     -0.1771008272   11.9819642443    0.6526801690
H      7.2918507452    9.9488270133   -0.8965371338
H      2.2862439522   11.6983417525    1.3152911321
H      2.9931183610  -10.3928137314    0.3586099088
H      4.8329143414   11.5042649555    0.9957911827
H      7.5762022963   -9.4976086874    1.3987358704
O     -3.6956950140   -9.1765804950    0.8931011396
H      8.5491022321   -7.8325320224   -0.5908249740
H      0.5087560993  -10.0725504384   -0.7517530290
H     10.2484502983    7.5611789579    0.0186400416
H      7.1433868648    8.7492745573    3.1352739574
H     11.7910928921   -3.6253578801   -0.4352142748
O      9.9236266002   -5.1298408847    1.0140839592
H     12.3281200844    3.2154777512   -0.7184330628
H     11.3143890042    5.2292233190   -0.0936522507
H     13.4067316102    0.9175421629   -1.2164488511
H     13.2142550307   -1.5218396169   -0.4967890269
O     -9.7254295370    3.1122099012    0.4647555474
O     -7.1747521954    5.7196157045    0.6237392214
O     -5.4817702577    7.9398755982    0.5805614875
O     -1.3786972836   10.6755981842    1.9027410075
O      9.5918561316    4.5989763444    1.0572294726
O      9.1424943542    7.3185010348    1.8892906389
O     10.9020287189   -2.2165623414    0.9617214190
O     -6.6111859605   -6.8815232151    1.2105310860
O     -8.1550511426   -2.7884814666    2.4256516345
O     -0.3366741935   -9.3465089830    1.1279512797
O      3.0294166012   -9.2262573182    2.2062606833
H     -2.1239833047   -9.8405584943   -0.7877718058
O     -9.4812678844   -0.1915355523    1.7562773008
O     12.4965717840    0.1924111474    0.6341172227
O      8.1909170462   -7.1474221961    1.4700590135
H      9.2834345183    9.6951491302    1.1390817669
H     -1.0857409649   -7.5717048083   -2.1138679168
H     -9.7003736288   -1.7199852983    0.2574915566
H     -9.3773139725   -0.6240339768   -1.9965428654
H     -8.2227767717    4.1872330773   -2.2422265084
H     -9.8930128327    4.9370263736   -0.1188216042
O     -6.3047014478   -4.6107988387    2.5435118815
H     -6.3201673414   -3.7650620532    3.0479886778
H    -10.7499418724    0.4284220589   -0.3249883465
O     -3.8700625872    9.2437062667   -2.4359186124
H     -3.3144652240   10.0393037750   -2.6202236709
H     10.6956370515    3.9082200003   -3.1934093239
H     -4.6768923586   -9.2651813080    0.8309876223
H     -3.9750793657   -8.4105424900   -2.1734462451
O      1.0030248612    9.7780731884    2.5050971542
H      0.2778560478    9.1728381046    2.7864010679
H     10.1760867379   -5.6350648809   -1.0121475817
H      9.3650424410   -5.7612249834    1.5311405292
O      7.9659352968   -5.8420698581   -1.9927875288
O      6.1407756903   -1.9193206365    1.3662551115
O      9.7096422408   -3.5694709409   -2.2381883247
H      7.4313680639   -5.0903695845   -2.3494367923
O     11.5973407720    2.1205046683   -2.4554982066
O      5.6598103528   10.0121643784   -0.3675860716
O      2.6942296049   10.6956428865   -0.5802443416
O     -3.0711813139   11.3863612160   -1.4164517649
O      7.3282402959    9.7087288998    2.9937480228
O      8.2289584010    9.8146670941   -0.6163155907
H      7.2706547027   11.1228593279    1.5238255775
O      2.3498180386   -8.2974772008   -1.2921140230
H      2.4110490898   -7.3272806488   -1.4977206998
O      5.9508665759   -9.7298459793   -0.0361325886
H      5.2808498249  -10.4987900446    1.9053956729
O      1.1584275736   -7.4223724630    2.0983311522
H      1.7856234946   -8.0028906855    2.6100158403
O      7.2809142434   -4.5430237271    1.4590381986
H      7.8282005190   -3.6831451272    1.6013821998
O      5.5696222354   -6.3269870562   -1.1564648693
H      4.6378100715   -6.5140800556   -1.4011788975
O      8.5505307809   -2.5561511635    1.1293580207
H      9.5215254009   -2.3614793570    1.3846236434
O      6.8602058244   -3.5418069566   -1.9734744788
H      9.2979057630   -2.7706312851   -2.6372538029
O     -1.3675712369   -6.6307826287    2.2197425022
H     -0.4176495121   -6.9607700769    2.3136273705
O     -6.5141587316    0.3506502389    2.7777044975
H     -6.8898298490    1.2416416761    2.9498114476
O     -7.5912226234    2.2015824677    1.6467272250
O     -5.6082124634   -1.9563593252    2.3782493911
O     -4.9037970543   -4.0469659260   -0.7317179250
O     -3.8945342649   -6.6639629101    1.8925477243
O      0.0498700127   -6.5364421550   -1.1598915167
O     -6.2066144570    3.0390263575   -1.7302580376
O     -3.6262012273    6.7071672226   -2.1709730157
O      7.1275606559    6.2788426813   -1.2795161426
O      8.1199827349    3.7358374848   -2.4405119836
O     10.1744807630   -0.3855538781   -2.3328731807
O      1.1801824458    8.6040468293   -0.9983641553
O     -2.9794775932    8.4196685111    1.1173394038
O      3.5311403055   -6.5308044482    2.3134820342
O      6.3261907819    7.3896155215    2.2827227923
O      3.4100710453    7.9909100596    1.9908652689
O     -0.7589876324    7.8728182051    2.0910497499
H     -1.7380850645    7.9007712394    2.2870075578
O     -4.2537696178    4.3193353905   -2.4387670279
H     -4.7258155768    3.4536340955   -2.5765176697
O      8.1571178117    1.1357732749   -2.7517951749
H      7.3567411757    1.7292179646   -2.9000803877
O      7.9602247559   -1.3889368813   -2.2629645782
H      8.0726856927   -0.4732364878   -2.7134823342
O      5.8872762898   -6.1439673208    2.5065075269
H      6.5968117514   -5.4395776323    2.4253009647
O     -2.2306822942   -4.1390498792    2.0685829435
O     -3.4394197800   -1.8786569777   -0.7571603196
O     -4.1138872433    0.6054377492    2.1256480338
O     -0.7902436368    6.6226146483   -1.4608395653
O      4.8789612994    5.2280991594    1.6324569324
O      1.3701060602   -4.6562238426    1.8399625400
O      7.9758622037    0.5000530546    0.8528542918
H      7.1045955790   -2.6757223782   -2.4160971672
O      2.5660096932    6.0565611542   -1.2863948337
O      6.0678786332    2.2802798785   -1.9735399030
O      4.8206809353    4.6210816482   -1.9440156372
H      3.9892209659    5.1550762365   -1.9819015250
O     -1.8267008502    4.1287073433   -2.0450108488
H     -2.6744409108    4.2913197051   -2.5518951012
O     -3.4599294142    4.6274409822    1.1482286214
H     -4.3124096213    4.5023839874    1.6136688112
O     -4.1207863435    1.8289231248   -1.2412541448
O     -0.6116934768   -4.0752715894   -1.2092143025
H     -1.3068874904   -3.4464835779   -1.4980794263
O      4.3949686923   -3.8731900999   -1.3105273236
O      2.8516738782   -5.7366015645   -1.2073066924
H      3.0785412579   -4.9974356910   -1.8301877763
O      0.7313493239    5.8896636645    1.8673871839
H      0.1877155743    6.6059030070    2.2934442779
O      4.7728614807    1.5839651823    1.2249503136
O      3.7797570229    2.5804336071   -1.0989819765
O      3.7288801670   -1.6738617420    1.3743629456
O      0.9059998989    4.1085023880    1.2544381618
O     -1.4119139910   -1.3180097342   -0.6026170254
O     -1.5859941244    2.2558660507   -1.0270794630
O      0.9866777658   -2.2011291981   -0.7318646908
H      0.4712461233   -1.8183454275   -1.3858290911
O     -0.0312620103   -3.0103337765    1.5770088434
H     -0.1470242292   -3.0141201019    2.5347325802
O      2.3877456188   -2.6290442944    1.8267217875
H      2.4172313213   -2.3312797546    2.7428507805
O      4.6777033806   -0.2999112904   -1.2359578609
H      4.1755304337   -0.1429356039   -2.1829044819
O     -0.9433901906    4.1092777252    1.0736532211
H     -0.8986835480    3.4806709290    1.9589682817
O     -2.2950143814    0.5818347931    1.9048632383
H     -1.8313941956    0.4788889587    2.8057541847
O      2.4919059277    4.1902470589   -1.2129453421
H      2.0591886044    4.2415313721   -2.1493794918
