311
Coordinates from ORCA-job input-L4-gmt
  C   -8.76963754168159      0.21591636804686     -0.15466102780491
  C   -8.86711668974323     -1.25104311846764      0.11950187987674
  C   -8.16537674298774      4.35945062490700     -1.67236196219622
  C   -8.42868087690090      2.98144477487195     -1.05474317555345
  C   -9.50896491282256      2.14782336385255     -1.62482788436281
  C   -9.39701524399013      0.65328592035566     -1.46666788620267
  C   -6.69565647422288     -4.31215032667691      1.31404829620289
  C   -6.85004977897895     -5.72387655800873      0.75466043742133
  C   -6.47321801316259      0.19196183405623      1.12281828321183
  C   -6.51166821144758     -1.34599716781878      1.13223051791880
  C   -7.84620216326735     -1.98156391249190      0.90899285648272
  C   -7.92530637130676     -3.47652134919515      0.96044685103511
  C   -5.76714521721844      4.14305971924230     -1.05124121240773
  C   -5.99177773625824      2.76881578362248     -0.51243985163839
  C   -7.36810058323926      2.33554059074736     -0.20893296164521
  C   -7.56424990909921      0.93823488923360      0.31388845371236
  C   -5.38025994696001      8.58708426792490     -0.84688768581246
  C   -5.51398752374559      7.08895221148451     -0.81348444502042
  C   -6.85137317174412      6.45963018374439     -0.91411490755902
  C   -6.96160943718657      4.99459697301895     -1.01397232967480
  C   -4.38521577323976     -8.39979699145216     -0.70109692652523
  C   -4.21416098364084     -4.52646678154129      0.70320034184280
  C   -4.32423908832209     -5.99278017033550      0.94879336795026
  C   -5.63581938468054     -6.55458856042230      0.52030240231132
  C   -5.62567844556440     -7.59766539527646     -0.52941634495850
  C   -3.80205403242027     -0.12084430302319      0.98849397247469
  C   -3.97020016197952     -1.57614465367744      0.74822975321503
  C   -5.27279815547161     -2.21400053986936      1.06835924835839
  C   -5.42902706469555     -3.66912048721508      0.75414557301686
  C   -3.41714246888222      4.12887167631777     -0.07513327106422
  C   -3.48737269241766      2.59647647883196     -0.06612709778762
  C   -4.83549946140539      1.96297918390099     -0.01975939860099
  C   -5.03992774079897      0.74655222299518      0.82895509888620
  C   -3.03000399013022      8.36480110043013     -0.25067583403973
  C   -3.00481722636413      6.93476695286280     -0.69435664903678
  C   -4.29187455689226      6.26016436859511     -1.07607034914408
  C   -4.34145469754101      4.71247584170904     -1.16289329714122
  C   -2.76863010523229     11.31737428463587      0.04202587811165
  C   -3.99052753816079     10.69086810902916     -0.55534710931824
  C   -4.01514812373551      9.23247052018283     -1.03513150204422
  C   -1.96646118151544     -8.70739719097836     -0.54602361767920
  C   -1.69189628215251     -4.72884988387004      1.05477179068512
  C   -1.69815272625329     -6.26404072738767      1.13034585865585
  C   -3.09103410180695     -6.86375640057119      0.90012055243032
  C   -3.20654611218963     -8.27702605823924      0.27151451076030
  C   -1.22440506675272     -0.39454172293928      0.48673111722756
  C   -1.38423448937780     -1.84642332569642      0.49129758670403
  C   -2.76519461554297     -2.44411175094520      0.49115721407057
  C   -2.89654955657330     -3.88097121797297      0.89317231866331
  C   -0.98760074577426      3.89326528187499      0.66154035141003
  C   -0.96837051199497      2.41860922467458      0.31906757184804
  C   -2.28364309013243      1.79034856615762      0.26214101861874
  C   -2.37789982825788      0.46628436645162      0.94244103872671
  C   -0.69744715295390      8.15612138991888      0.91800116601272
  C   -0.66849002285888      6.77781551441137      0.31036999746525
  C   -1.84740909225413      6.12401775538249     -0.28388271372007
  C   -1.94320897486569      4.60626453900769     -0.33963093531319
  C   -0.37160230290092     11.04210350625298      1.06549616248583
  C   -1.69103187416627     10.46127320740815      0.59362843311036
  C   -1.85103112922196      8.99622978222942      0.42880095530415
  C   0.56310717138813     -9.15634720807523     -0.07669025010951
  C   0.76969227636839     -4.90784376958506      0.88922363172171
  C   0.71196970215516     -6.30230584367773      0.39127047133967
  C   -0.60348758611666     -6.92549887443898      0.33582301644312
  C   -0.69612687553630     -8.40400229186587      0.17901591346970
  C   1.24229410842809     -0.57323901286455      0.78023404113369
  C   1.12274229228111     -2.06378935877309      0.60247471365469
  C   -0.25322044485000     -2.64118023952053      1.08052503864250
  C   -0.42056129700801     -4.07556757118706      0.56410411174666
  C   1.56057673822581      3.62601231690746      0.36949671359523
  C   1.44644827040226      2.16927421730898      0.43263787595363
  C   0.21187006239340      1.59736953961280      0.62516080976609
  C   0.10108706762614      0.21256452578637      0.74066990592812
  C   1.84398659246833      8.01007002567468      0.40573942500247
  C   1.69777848654521      6.55974866556598      0.15600821694983
  C   0.47928024923597      5.98128342104921      0.82430682886271
  C   0.38724734140525      4.47806392708205      0.66794259633901
  C   2.18685113470839     10.77473617479963      1.24854711030173
  C   0.81792491789296     10.13404905376324      1.45934260471094
  C   0.64917388286877      8.82489861873472      0.72932457753484
  C   2.97271329027036     -9.36969404495623      0.63704410759328
  C   3.16834845305993     -5.17561172884877      0.47947991810402
  C   3.12422785791746     -6.51425116043165      1.13985832510609
  C   1.77705928722134     -7.21464222132927      0.95039396898862
  C   1.91101381194969     -8.45606553040223      0.06046204310430
  C   3.74890420747201     -0.74491899131336      0.70226007041768
  C   3.64217831970324     -2.20263516653725      0.98350785442540
  C   2.26087366249065     -2.78898716105539      1.33973512337288
  C   2.10900775880270     -4.29073860045904      1.08281350358977
  C   3.86766873581551      3.35703935980690     -0.57008489024770
  C   3.86146479376422      1.98489368004858     -0.02498251095397
  C   2.60261092275794      1.39916194776428      0.46922557380143
  C   2.50777285345084      0.03381819003037      0.67242229862508
  C   4.30471635389575      7.47740227423856      0.87970730595663
  C   4.16471609334116      6.09718178918473      0.33340768161991
  C   2.84903981641917      5.69670498642549     -0.17952555552527
  C   2.61730652596337      4.21510851946978     -0.50959311238318
  C   4.78099165726234     10.36463405166239      1.23855275602651
  C   3.38973614598165      9.92565955731162      0.94338688442471
  C   3.16602352231423      8.45897188785604      0.87927988117327
  C   5.43119130526622     -9.62790846705821      1.18246031269014
  C   5.65176140383069     -5.49294685012975      0.06602639608315
  C   5.75306765875167     -6.61309341433557      1.16854650226184
  C   4.37481332379109     -7.30369889002248      1.31639808383578
  C   4.21121795929359     -8.78711577127072      1.24130350093230
  C   6.20927343479667     -1.01684547357468      0.14485634591697
  C   6.04302045427789     -2.49700732068008      0.18140523699668
  C   4.66441584927658     -3.04987961111951      0.32251722024088
  C   4.51496434411325     -4.52991683010873      0.27664435435690
  C   6.32261989111926      3.21857635785504     -1.09295706024248
  C   6.32613433389545      1.80829128488123     -0.60745583755233
  C   5.18718341676792      1.30492101956639      0.28857002163411
  C   4.94279999417996     -0.21575914989296     -0.08312197843390
  C   6.86909561956308      7.07999978357042      0.85916125122059
  C   6.65997176702923      5.92979087896992     -0.07350573089390
  C   5.33849254716046      5.27415751259879     -0.04542923163415
  C   5.09792194453006      4.12059859591597     -0.99798105652717
  C   7.25969446674733      9.74966418438061      1.91553277098939
  C   5.91118088523374      9.39454748992028      1.30667906861887
  C   5.68344522407961      7.93877304207468      1.16438004444311
  C   8.02193099157113     -5.66997798624517     -0.77610359731053
  C   7.97174985011902     -7.07998244310436     -0.22599492202627
  C   6.90169036337240     -7.54090313192305      0.70932101118404
  C   6.74812414515603     -9.01170863653205      0.86685115866266
  C   8.42121634625921     -1.33705891627615     -1.09807055714863
  C   8.43288372210524     -2.75055869104962     -0.47595182418701
  C   7.01247135094895     -3.37242734225489     -0.59981834795773
  C   7.02572100590818     -4.77835833311093      0.00441547950795
  C   8.82211352636694      3.02002744308621     -1.66144145163920
  C   8.63316015019156      1.47716621018042     -1.69860784780796
  C   7.61713008245348      1.04356463071909     -0.60230613896486
  C   7.49990927893360     -0.42005516140191     -0.32712891815804
  C   9.38572387119338      6.84222076639097      0.53478289939887
  C   9.13952412839733      5.46860527859142      0.01413576205626
  C   7.83665404800639      5.20498029399439     -0.64541010268645
  C   7.64158078175881      3.87556284401248     -1.29994887104842
  C   8.32737943074221      9.19989101093518      0.93505111329357
  C   8.22607389332990      7.68572041390743      0.92260206093343
  C   11.03814107931623     -1.54266601563318     -0.78299818453307
  C   10.90271435996899     -3.02950438722360     -0.76263138003283
  C   9.53266435296846     -3.61614271742820     -1.12840642904476
  C   9.45208322310814     -5.09596453351555     -0.66597572073540
  C   11.36994892013482      2.82159668604868     -1.64602078154646
  C   11.25516109567363      1.34890431641092     -1.64940622138483
  C   9.94473386250138      0.66935760694300     -1.62377263575366
  C   9.84237178075740     -0.77340042376179     -1.24638863741275
  C   10.27441634593838      4.57791192214708     -0.28071893939933
  C   10.18782518451546      3.73031123104743     -1.52654959340696
  C   12.45979270164828      0.55795381379319     -1.30778636949257
  C   12.36017359231299     -0.87977567938725     -0.93174764645918
  H   -6.29267264415520     -7.46260365759959     -1.37214759461571
  O   -9.31046236018994      5.17998540257014     -1.51973620028543
  H   -10.01285436074729      2.50096986625305     -2.51645522124562
  O   -8.54062083720910      0.29377984900329     -2.55692497106190
  H   -7.70590663319512     -5.88752039870569      0.11022795128810
  H   -8.70908086348813     -3.96299293026563      0.39136834873190
  H   -6.23449866484823      9.17029789462842     -1.17421424432288
  H   -7.71245837057271      7.03751482780020     -1.21858679719823
  O   10.33149624553994      4.68889624330633     -2.58023764434506
  O   -5.56744686172303     -8.99492202297682     -0.02243869993427
  H   -2.87868182242798     12.24670244587682      0.58646864253254
  H   -4.94079635915060     11.19801663804528     -0.43919800090185
  O   -1.98953084647710     -8.00403134889092     -1.80067928190584
  H   -0.16200854152401     12.07606682990428      0.81751021912467
  H   7.25191184585673      9.99451350735024     -0.57331455555390
  H   2.32464602374482     11.67232940693719      1.84088328004795
  H   3.05660780201767    -10.34990231345671      0.18507699584929
  H   4.91383909701707     11.34174509089502      1.68572351811378
  H   7.65358195190760     -9.49713548768582      1.20841387386921
  O   -3.37509118403263     -9.23036291500058      1.30737519317129
  H   8.45277213867505     -7.81332336296308     -0.86331661883318
  H   0.54330791055673     -9.95931635311725     -0.80431255223173
  H   10.29301456852339      7.33177386240820      0.20502328043448
  H   7.20857410087245      8.26362967912238      3.24485999925900
  H   11.75587453365271     -3.65788248454109     -0.97774906523597
  O   9.99638916940694     -5.17274490450505      0.65266243538702
  H   12.31463074032772      3.26434974786410     -1.35541669389635
  H   11.26499443974870      4.95211782654699     -0.05525387108592
  H   13.36055370626677      0.90779873449627     -1.79674094972659
  H   13.20386938035922     -1.53589876513406     -1.10464736512181
  O   -9.76130058904853      2.93241980299180     -0.39302891931721
  O   -7.11765315959363      5.61795941309326      0.31008904912741
  O   -5.50422785658222      7.89921512641210      0.44757700056904
  O   -1.48097230753789     10.83574918891463      2.01990954982545
  O   9.44325161847292      4.30003651061715      0.90308108687851
  O   9.03927528201528      7.01644773371324      1.96407269162007
  O   11.02950839757681     -2.26500114876039      0.52842744021611
  O   -6.54515571007383     -6.82923415725284      1.65913608664774
  O   -8.42771587982986     -2.66338109652745      2.08498578069831
  O   -0.23235184977233     -9.39431535751492      1.15946218558334
  O   3.12682838777516     -9.33429968681431      2.12145630459147
  H   -2.06920862352928     -9.78227535534349     -0.69544345718205
  O   -9.67698277186004     -0.27084087589008      0.88862782267650
  O   12.58278731310315      0.16250494371092      0.10399320146042
  O   8.26945014502944     -7.16625998120922      1.23283211314777
  H   9.31680042120025      9.44971195364435      1.31626326750613
  H   -1.23823818476218     -7.37860712286120     -1.89971508059641
  H   -9.46151321569999     -1.85455482967927     -0.55728618071784
  H   -8.50877709513452     -0.66218562685085     -2.74806880544645
  H   -7.93086607469214      4.23885796731205     -2.72818174157353
  H   -9.89071817263310      4.77761354678896     -0.82896007113425
  O   -6.54315812816588     -4.39420249862828      2.71996001574455
  H   -6.56411701318983     -3.47855010546595      3.08431728208136
  H   -10.39071297070857      0.19946469421547     -1.50686091002483
  O   -3.71808318865160      9.26478220105169     -2.42030896380951
  H   -3.15553245144251     10.06023336529869     -2.58507963952458
  H   9.50668459310836      4.67712164097204     -3.12339839844973
  H   -4.33966799735277     -9.33367772245063      1.47774281321809
  H   -4.15203655917064     -8.78532029234566     -1.68218599444745
  O   0.80630887885241      9.91463408476984      2.86583569031390
  H   0.02564543533457      9.35978342508889      3.09699438950373
  H   10.04739595530029     -5.65399837682677     -1.39432264030446
  H   9.47396578022692     -5.79948312939373      1.21068196990570
  O   7.74094655739130     -5.78118150529353     -2.16427571121888
  O   6.44059189486803     -1.75909539983630      1.38912142215337
  O   9.49963765960269     -3.57108698374408     -2.55560602285838
  H   7.14474165230832     -5.04164592309839     -2.43654936181571
  O   11.39428023722941      2.10039948627218     -2.92510887110878
  O   5.63891136090645     10.10981845585962      0.03138471276292
  O   2.76660795490298     10.78183431770934     -0.09906890097137
  O   -2.99830251385989     11.42685633022372     -1.41107329374567
  O   7.40264234511881      9.23082176872960      3.23025369755312
  O   8.18330726039858      9.73694898124158     -0.37599497168013
  H   7.35790317112687     10.83308684405926      1.97057397736619
  O   2.36660676034031     -8.09835328812512     -1.24606838494766
  H   2.31114950186794     -7.11885796097449     -1.38604870107238
  O   5.99304181357372     -9.73587067048373     -0.18419118653710
  H   5.38140564736787    -10.54314040863361      1.75997349326546
  O   1.23023331745575     -7.54946234509250      2.23223743217823
  H   1.85750693564319     -8.18305534940755      2.67457173590624
  O   7.40533600320025     -4.56358423029605      1.37336898923860
  H   8.00904603882067     -3.73214879555659      1.46502406633503
  O   5.40261945198732     -6.19741534037700     -1.15143381600384
  H   4.44344471187292     -6.32178368606254     -1.32099183801771
  O   8.70860714877712     -2.61063716741134      0.92246572049858
  H   9.70030080678384     -2.42093004886986      1.08057100511960
  O   6.62285743916781     -3.48632781085867     -1.96406955003555
  H   9.00320678487719     -2.79040694588228     -2.89674306145289
  O   -1.27774340669979     -6.59480981269324      2.45358610982008
  H   -0.35243890303112     -6.99817546480843      2.51169250620040
  O   -6.80097358401629      0.44908258219188      2.48101585929343
  H   -7.23930335912935      1.32778476288448      2.53999760197472
  O   -7.81256095750165      2.17502578814961      1.16257480248133
  O   -5.86657681333742     -1.85150424421480      2.36485587056353
  O   -4.92662114297775     -4.14111656295248     -0.55336009547348
  O   -3.84087605759135     -6.65263581219392      2.15660573284568
  O   0.07783676071911     -6.44551663482250     -0.93817559662552
  O   -5.96011986970759      3.01383435118599     -1.99608146415664
  O   -3.36497457701107      6.75057925776601     -2.10859775334802
  O   7.18225205850324      6.29316282178532     -1.40954512047165
  O   8.06230216501122      3.74057650618483     -2.72275474267878
  O   10.05234786463819     -0.39247307367023     -2.65867687559766
  O   1.14026029973216      8.77248288799577     -0.65384577985450
  O   -3.06815871616239      8.55469108951372      1.20365294955089
  O   3.66022207434322     -6.68305947642457      2.46580779624191
  O   6.27634196795629      7.06756671174175      2.21937926342375
  O   3.50021139823866      7.72211323074020      2.10889401203247
  O   -0.94703163025465      8.03872888603391      2.35787813221696
  H   -1.93986898518293      8.05105645855939      2.46983253643143
  O   -3.86589130543952      4.30437911602314     -2.45472048270637
  H   -4.28055022650505      3.42101240055176     -2.64824123513585
  O   8.05066918147501      1.07708664018763     -2.95739467345816
  H   7.19454137887714      1.59152589849835     -3.04384413471450
  O   7.85350300926373     -1.42732658697995     -2.43171122339039
  H   7.94814021852248     -0.51916612813550     -2.90033202687768
  O   6.03233346940844     -6.16919568146526      2.47110095007200
  H   6.75066509128306     -5.47557410076746      2.35890408282293
  O   -2.31581486884605     -4.10077921920184      2.25652257296294
  O   -3.55636785766602     -1.91950740990704     -0.62927162338225
  O   -4.37647026491902      0.62357635470280      2.13744920698020
  O   -0.72960295255966      6.66050588136802     -1.13569601662455
  O   4.70905020400469      5.05732392373037      1.26810301355676
  O   1.36944086573484     -4.86996642110606      2.23138647075629
  O   8.12784391108534      0.49704203790734      0.65703431682129
  H   6.82264611633662     -2.62277034963639     -2.43117898317521
  O   2.14368583477516      6.43719101674167     -1.25886487630838
  O   6.04685711790350      2.13998376376959     -2.04775163997754
  O   4.83693279304617      4.64865860475109     -2.28936302973184
  H   3.94310049436033      4.36581408752380     -2.61126486816118
  O   -1.47458958730731      4.25204753881368     -1.62230019721228
  H   -2.21817127002592      4.29461430406647     -2.28471076835494
  O   -3.86988518384047      4.63136527509581      1.17783943738874
  H   -4.82368743868526      4.87987228251111      1.19483616029699
  O   -3.98615595248247      1.81730736648278     -1.23633822806743
  O   -0.67096276461272     -4.00599331479838     -0.83827698410576
  H   0.15429059346110     -3.70653812676000     -1.28366033000838
  O   4.22071810870171     -3.64620752132411     -0.93623816118255
  O   2.74826841819583     -5.50948250937386     -0.89852929354426
  H   2.94012376557667     -4.68461839692985     -1.42534442948786
  O   0.71465344353694      6.22863914530669      2.20548786587473
  H   0.07538412189214      6.88907325476559      2.58463623443997
  O   5.48878359169561      1.42047776287344      1.62351327414645
  O   3.64412061122365      2.20033873937914     -1.49288646401986
  O   4.10194858395004     -1.27813292154625      2.02886189971280
  O   1.30651643281556      4.03140473189776      1.76740991433116
  O   -1.15068448950891     -1.14387422896693     -0.80220782255033
  O   -1.48912753404310      1.85324104357961     -0.97695488004942
  O   1.25278066109067     -2.33507291827689     -0.81993169022984
  H   0.61908822833231     -1.72786558291796     -1.28661952294105
  O   -0.33631141417105     -2.56740092574305      2.50550283894460
  H   -1.14293046609515     -3.08739728736998      2.80189591685520
  O   2.13848817341945     -2.52158652544347      2.71531426508852
  H   1.18622552541146     -2.63581165679732      2.98738737718675
  O   4.73680739478989     -0.25355326042778     -1.48632233402461
  H   4.30449310302181      0.56178422762090     -1.85121592738803
  O   -1.49855861720587      4.04193843498850      1.98404263882842
  H   -0.77184271540572      3.91256314310887      2.63353981159053
  O   -1.97906146248518      0.63860624292761      2.31022030394544
  H   -2.76152427936475      0.93377073409158      2.82872875986244
  O   2.13585505930922      4.13807301434635     -1.86250957469907
  H   1.63340542498832      4.97377283871194     -2.05478354553115
