224
Coordinates from ORCA-job input-ccc-17epoxy-13oh-geom
  C   -8.67067433574318      0.26623138982816      0.11434267038989
  C   -8.79051764774667     -1.13469332749202      0.06539853657035
  C   -8.36973508134533      4.51214958240502     -0.57925231543680
  C   -8.92355509197723      3.39452908079596     -0.05039901871983
  C   -9.91787669316473      2.44375587233466     -0.51054806652289
  C   -9.81269669064322      1.09422524016126     -0.30973589149878
  C   -6.70129405340573     -4.29852647373187      0.53914661732070
  C   -6.74328223907912     -5.73084521126749      0.17717258528045
  C   -6.23073092314643     -0.03139935592333      0.37860965143299
  C   -6.37065082000427     -1.42913147311714      0.41242819312703
  C   -7.68820376046999     -2.01708595580467      0.27650514766529
  C   -7.83304388623173     -3.40606198854559      0.27547420965001
  C   -6.00464217812446      4.28448482145227      0.55246419436555
  C   -6.00529936323037      2.81417658364429      0.49941969612730
  C   -7.15607508138222      2.15467016088870      0.68631437424661
  C   -7.38399595838614      0.78872094987419      0.39896022889270
  C   -5.35341609188089      8.38395011086299     -0.68235818409192
  C   -5.51787506252208      7.00235732004914     -0.30434470867972
  C   -6.80656789443810      6.37436107091329     -0.46233781979229
  C   -7.08864785386068      5.07741756028334     -0.13569533345327
  C   -4.52131700116882     -8.59170583563619     -0.58746252485734
  C   -4.17052697850467     -4.41041969081002      0.25519725790157
  C   -4.28954981750313     -5.84106041349954     -0.04745562629801
  C   -5.63041566632123     -6.47489361288600     -0.02259663029293
  C   -5.65495582736906     -7.88193711438937     -0.35625441947391
  C   -3.82883833544768     -0.23397579062600      0.51791620036344
  C   -3.95319086581706     -1.63843881934057      0.59684777638068
  C   -5.22593427293096     -2.21083855878602      0.53847207312279
  C   -5.35857995073459     -3.65833682278727      0.69890039441573
  C   -3.42597638806229      4.01832861701678      0.63554131005278
  C   -3.53142383472996      2.68299362248142      0.59713058466463
  C   -4.79551627338438      2.03678706569841      0.09919470525284
  C   -4.94552289866259      0.55843032336950      0.38295311272631
  C   -2.93777874580852      8.22087317318291     -0.38232504900336
  C   -3.13270911233130      6.90402378261058      0.23623030755607
  C   -4.43881155681803      6.27294251796212      0.12937753137512
  C   -4.60874411703196      4.91835781785097      0.63742602154416
  C   -2.67239920329157     10.80010156304377     -1.48129543591073
  C   -3.92003568569069     10.31974347792580     -1.23398781382825
  C   -4.11748490635097      8.98219520950633     -0.73074964153215
  C   -2.07030514507670     -8.76881324309594     -0.71877195735119
  C   -1.73993388416993     -4.72899899275011      0.78608115222466
  C   -1.86417223617342     -6.11144934051032      0.30973152297004
  C   -3.06367268260419     -6.66440169390923      0.01651232752379
  C   -3.18438911322652     -8.04157220450971     -0.43578378361317
  C   -1.35743833374899     -0.45198511752355      1.09317689258764
  C   -1.44898615458142     -1.87457360627171      0.69170621795432
  C   -2.78499960505330     -2.49268595899108      0.72307074495583
  C   -2.88282770553237     -3.82986179396828      0.62406226433670
  C   -0.93904543479550      3.81015216252659      0.88981241502523
  C   -1.02063248919634      2.41326864039934      0.95933780509566
  C   -2.30669510723113      1.82144283393681      0.42035705476511
  C   -2.53792105720113      0.39968060310211      0.83958007042315
  C   -0.50597437921080      7.76049332137197     -0.65503675091197
  C   -0.61849168176085      6.60737871991729      0.29394460056551
  C   -1.95699254171306      6.07631830971753      0.57882588339248
  C   -2.07668456931966      4.59965435580521      0.32234050439823
  C   -0.23808080796220     10.43919423577049     -1.58412322380878
  C   -1.49626230538714      9.99393456944786     -1.24917360178098
  C   -1.69267485461147      8.68522191716970     -0.67281877965552
  C   0.41332586672113     -8.75715754012790     -1.22514843667548
  C   0.85775703535062     -5.04558356244055      0.89677575956654
  C   0.58459614582207     -6.02768908621232     -0.24423916248721
  C   -0.61605462956369     -6.87261456938407      0.14625727514437
  C   -0.72917363331585     -8.24588879672677     -0.46911123730441
  C   1.13029399726150     -0.64069318524458      0.77484132812413
  C   1.08370729689706     -2.09025747712328      0.90259267541973
  C   -0.22067733503409     -2.70352615000071      0.73158140882955
  C   -0.38164580573720     -4.14751879053976      1.01930397148003
  C   1.58257657061417      3.59833004216430      0.88603759676189
  C   1.41507786531932      2.20489710507574      1.35946397345095
  C   0.08260836129210      1.60399685324191      1.18406245132917
  C   0.00751697148876      0.12378738787953      1.43377984205014
  C   1.95793457395367      7.57087475221354     -0.36980554114671
  C   1.81158116883577      6.39544032957531      0.26459118118234
  C   0.48214785762800      5.88458643667663      0.55708555654643
  C   0.36946510982959      4.43575074135955      0.74992031624040
  C   2.17703332237772     10.08229036800100     -1.76028472260768
  C   0.96200254686673      9.69538486819729     -1.31852921686711
  C   0.79411728589001      8.51764493904234     -0.39781399528174
  C   2.77111803651103     -8.71583077555574     -1.87806290525424
  C   3.23016071411670     -5.01321532432343      0.23593538136144
  C   3.03655789835815     -6.34832763684176     -0.32348637728909
  C   1.80486952977731     -6.85961749551225     -0.54471135104642
  C   1.62194161006271     -8.13685105239044     -1.21354682390552
  C   3.66471288767899     -0.84015032846525      0.30643057550469
  C   3.50379536135864     -2.24497810026358      0.78362352183269
  C   2.23709187447703     -2.85550843912339      0.85911343232919
  C   2.14573149319594     -4.29274302289762      0.67618378593632
  C   4.02034757107122      3.42298578116387      0.82878185582035
  C   3.93548217663445      2.00837859979574      0.87261425603996
  C   2.64219647482566      1.37489757644574      1.15252772409449
  C   2.44243866410895      0.01342598527360      0.63062820200020
  C   4.46109312010547      7.45274175499209     -0.16424038932448
  C   4.29796098128065      6.29211325722265      0.74437541794245
  C   2.97219878682931      5.65343502019919      0.79911837840110
  C   2.91151582072600      4.20652395915632      0.94159109049955
  C   4.66762690858642     10.07062068681371     -1.20387224203608
  C   3.44710456061779      9.28947475304194     -1.64095343680080
  C   3.27610553860583      7.99392046534506     -0.84169333349558
  C   5.16498140426615     -8.69487449353463     -2.44185819914558
  C   5.66760213906408     -5.11499938672932     -0.13837631052612
  C   5.56758312196664     -6.49621892319685     -0.64061500694781
  C   4.22391662076710     -7.13151963156051     -0.71971919307308
  C   4.01966362878230     -8.21695525912729     -1.70457320226385
  C   6.10739508293610     -1.01675321471482      0.72703810134466
  C   6.00100651230263     -2.40340208125613      0.61306626481373
  C   4.70979542758948     -3.10102779743668      0.94920162037260
  C   4.53680419126447     -4.43790071027872      0.26307904955245
  C   6.53085493362306      3.21834932891356      0.65968108409482
  C   6.39296204444734      1.81877384256651      1.16371761582104
  C   5.06062864003231      1.18827069204260      0.82708539982329
  C   4.95934635301690     -0.19676039067751      0.72017748117640
  C   6.81501269318596      7.51007299312067      0.57899920058790
  C   6.72916336775578      6.03319100893600      0.62432702295365
  C   5.50239971873279      5.45449088788611      0.70260794410351
  C   5.31476623464313      4.02511680171180      0.33113827758464
  C   7.08004123494626     10.13219469461633     -0.58519044880223
  C   5.77142339409609      9.48264961159482     -0.57819071571317
  C   5.68140949206512      8.19958215707038     -0.03722307662683
  C   8.12091644230002     -5.50063290214045     -0.17041941365297
  C   7.89405896762308     -6.46336458248398     -1.31382093771239
  C   6.66860522171207     -6.99817801505483     -1.49504285690587
  C   6.38775244064770     -8.11272100194969     -2.36993809528932
  C   8.58671572764016     -1.28317101273506      0.77933281069526
  C   8.42771602918608     -2.66617642478936      0.35404676401455
  C   7.13914876954357     -3.21398294299983      0.33612387604612
  C   6.95003165729941     -4.56402463930486     -0.02031119183686
  C   8.96751990216473      2.99365786985949      0.59672607166691
  C   8.87265733506759      1.58257222898364      0.68565735540116
  C   7.58115052131797      0.94939367524159      0.83477904363922
  C   7.41701852191034     -0.39773080525376      0.76571198511759
  C   9.32300722336887      7.24966808722693      0.28279909600035
  C   9.19453161334067      5.84927272053644      0.38227191300942
  C   7.90798644183948      5.23433573376670      0.52737873159251
  C   7.78349183132735      3.81385542303439      0.60338252285248
  C   8.20663530781832      9.49057792544272     -0.20516580526211
  C   8.17811624447536      8.14605852117494      0.40318775509452
  C   11.06250619900179     -1.47216864946530      0.13456225190003
  C   10.86995323440733     -2.79648779006032     -0.09467007173499
  C   9.57693527317523     -3.45003789668704      0.01355730236701
  C   9.43725572755816     -4.78509969790486     -0.26313615768688
  C   11.37750967687608      2.78701607985203      0.22966679200101
  C   11.27985853893670      1.40259187708876      0.25838806892207
  C   10.02430060233256      0.80742309340180      0.52699196168211
  C   9.95917917820088     -0.64754720879847      0.67123166104845
  C   10.33143172485174      5.01570971646605      0.30782354324905
  C   10.23394545287376      3.60455223461973      0.39530717351451
  C   12.43015002031871      0.55021813629574      0.00703070683380
  C   12.32295026092303     -0.79985468503649     -0.07941730906106
  H   -9.75929183479888     -1.57092996207743     -0.14895639215466
  H   -8.85620532383196      4.99692172231675     -1.41846446318545
  H   -10.78472291750192      2.81225209391848     -1.04927150498683
  H   -10.65808232002941      0.50308272039205     -0.65038373123225
  H   -7.71779846860979     -6.20113181915771      0.10715354648135
  H   -8.80501932420716     -3.84444759648917      0.08319596055536
  H   -6.23192592329230      8.94202609471483     -0.98227990120643
  H   -7.58380917844362      6.97299277917799     -0.92463162356156
  H   -4.59432454962533     -9.63490070691255     -0.87182514382494
  H   -6.62091665554060     -8.36599558162474     -0.44023843303196
  H   -2.53762729584337     11.79851235773779     -1.88068804407588
  H   -4.79459145704421     10.92435719758970     -1.44334392201710
  H   -2.16511405330003     -9.76352579368947     -1.13931453805338
  H   -0.13774517817024     11.39770375464435     -2.08119533334670
  H   0.29177593030249     -9.69075010453471     -1.76238168529521
  H   2.26472172044579     10.97198804001406     -2.37534258416332
  H   2.60909458526193     -9.55826305585160     -2.54098823692942
  H   4.76721428510679     11.06706112095762     -1.61681233522152
  H   5.01150830677653     -9.54010114851150     -3.10332241439992
  H   7.13931491883478     11.13110933640315     -1.00131607925614
  H   8.74877946022984     -6.83002237023309     -1.87054465781734
  H   7.20634022013025     -8.50036390183294     -2.96536489517835
  H   10.30508487829360      7.67768067241333      0.11924882135205
  H   9.17240225800047      9.96742015550089     -0.32986527196724
  H   11.70553935453905     -3.40584532791197     -0.41997479380947
  H   10.30485379782626     -5.39146327420789     -0.49707365761297
  H   12.33921721582681      3.25483097977844      0.05570128001339
  H   11.30698584390975      5.46602678989255      0.16962042017140
  H   13.38697862340049      1.03230258360429     -0.15480893530669
  H   13.18837675851888     -1.40367180404847     -0.32768756375423
  O   5.16409597110861     -7.48470949773345      0.41877047714941
  O   -0.40843270030363     -8.01272902761175      1.03104648667596
  O   9.45316463060337     -1.11439583334703      1.99900165061745
  O   -2.21389950941897     -0.02946303179312      2.24568327829474
  O   -6.02690527674366     -4.08902415565160      1.93471934743195
  O   -1.14844815818048     -4.53114873649438      2.21851500621099
  O   3.56388631780397      6.41542024993029      2.01721325870661
  O   7.47074203868206      8.13707563948682      1.76222775259877
  O   -2.60293510133800      6.70619387185600      1.72585919994352
  O   -5.48887290663665      4.81781269961067      1.84627953340908
  O   -8.25342959451793      2.89627521059984      1.08648618293855
  O   2.17920774620914      1.73445371057803      2.53848681967106
  O   8.19988097366157     -6.30347460722898      1.05266231563572
  H   7.36498114408768     -6.81041870989001      1.18309759660339
  O   1.00718221323615     -5.77199721124772      2.11232522379971
  H   0.17726773657443     -5.65559922551496      2.63770141132920
  O   0.20472278422143     -0.16901777103669      2.82385345130524
  H   -0.64630733196947      0.00547587102921      3.28763109825273
  O   6.44721064694449      1.87844665300846      2.62714664301217
  H   5.69745015272749      2.40610421996796      2.97991095333656
  O   0.69207814046724      9.13083187373576      0.90714910235317
  H   0.48026161243292      8.46982075307107      1.60005638023004
  O   4.79974380362544     -3.47065001464656      2.36518496547833
  H   4.97400123842403     -2.67979052990793      2.92009742798819
  O   3.76406358845973      8.92555960560879     -3.01465046222815
  H   4.12710817706542      8.00384962085091     -2.96869961497819
  O   -0.44486724652422      7.13464276681144     -1.95491379151901
  H   -0.88963161380230      6.24816649552709     -1.93409674043614
  O   -1.91500745706392      4.56017547625536     -1.14472077708704
  H   -1.80929568484997      3.59901359393840     -1.39883652003631
  O   -4.62408648274692      2.04459135489230     -1.36110349791088
  H   -4.40159008089424      2.94486611923818     -1.68616080966514
  O   3.74765306420854     -0.95301127752292     -1.13945378544544
  H   2.83744067302447     -0.75495477841627     -1.48103381171343
  O   5.18379010178530      4.03367721115280     -1.13192856803445
  H   4.69494007944558      4.84352366611254     -1.42842668047207
  O   0.26381752903827     -5.32275069912241     -1.45576222420265
  H   -0.21575385592812     -4.47432208689456     -1.32795042115671
  O   1.51064428150921     -0.03423770879526     -0.55216089151016
  O   -0.78272561482203     -2.24057442652888     -0.61215096192571
  O   -4.20200183324900     -4.82089310715486     -1.17829861872557
  O   -2.06297898308967      1.85350858967875     -1.00011751307659
  O   1.03619607068577      3.76687677524612     -0.49345414692132
  O   4.07448436723076      6.90164474126827     -1.56728211624297
