185
Coordinates from ORCA-job input-ccc-5epoxy-geom
  C   -8.64703090334084      0.20872540221352     -0.19689234190356
  C   -8.75509880091196     -1.17196405820886     -0.17137712890387
  C   -8.25665943514312      4.43257925292348     -0.32787915245002
  C   -8.39366510788256      3.05722369785635     -0.27755622923206
  C   -9.68324642870619      2.41592359468423     -0.34733586683524
  C   -9.80386666626587      1.06227562321414     -0.30756509336182
  C   -6.58135822404405     -4.22735744929130      0.01573600866015
  C   -6.67477397170712     -5.65007022029857     -0.04598534539784
  C   -6.19907405581922      0.00738608307398     -0.00837085800699
  C   -6.32366959823193     -1.40166377550630      0.01962504097729
  C   -7.61250316180416     -2.00615810778988     -0.07022715326538
  C   -7.71117003081905     -3.41214145533969     -0.07388737023553
  C   -5.81848983963658      4.24006076168987     -0.12495666470204
  C   -5.94759874150339      2.83068698873561     -0.07974537887904
  C   -7.22744930405869      2.22765222166418     -0.15652482359355
  C   -7.35378746241861      0.82380389816058     -0.11847437110341
  C   -5.41367021703388      8.47235126264565     -0.34658884022878
  C   -5.57676756989476      7.06055579947400     -0.24987661731555
  C   -6.83600899977584      6.45369028786423     -0.32336045145620
  C   -6.98355814633907      5.05872423166033     -0.25802855190875
  C   -4.54698319193140     -8.67685869194748     -0.17428650662952
  C   -4.12900931015453     -4.44130855648621      0.26835517018593
  C   -4.24947566284711     -5.88051228289360      0.19179141132902
  C   -5.56076705565791     -6.45903552814727      0.00525011157794
  C   -5.65599113074303     -7.88992021255743     -0.14329903094560
  C   -3.75162255182407     -0.20398015257828      0.16670550180306
  C   -3.88244701063441     -1.61450983010218      0.19506437137279
  C   -5.16679256970056     -2.21893669480763      0.12585628907830
  C   -5.28755422243197     -3.62795842174873      0.14217965751257
  C   -3.37520319658224      4.02587359632482      0.08159560001194
  C   -3.49991469498595      2.61673334607772      0.11337954101856
  C   -4.78658243545667      2.01539040289050      0.03571356464141
  C   -4.91261048001806      0.61086204587807      0.06733815539506
  C   -2.99972209671213      8.26279216238468     -0.05621123932140
  C   -3.13038834794072      6.85373435485175      0.00479761956943
  C   -4.41186810193891      6.24718930927073     -0.09255728433836
  C   -4.53964729179498      4.84211513254956     -0.04296234031701
  C   -2.78359396628769     11.07112726937280     -0.37204972282933
  C   -4.00714371831964     10.49372576380756     -0.42197021830637
  C   -4.17340067883069      9.06651526905111     -0.26971941375260
  C   -2.07928801905848     -8.88070369992028     -0.10266516724740
  C   -1.68879888696174     -4.63403996403209      0.63633294459938
  C   -1.82419760686349     -6.15858379659090      0.54084015267047
  C   -3.13906801165899     -6.70355057867364      0.21773321767726
  C   -3.23065912123039     -8.11075313107995     -0.02284389580220
  C   -1.30880323347952     -0.43036737897941      0.30924903574455
  C   -1.43574154590025     -1.83126048558614      0.33281636330905
  C   -2.72997675902638     -2.43103443990284      0.29803270211161
  C   -2.87690766177715     -3.82790447314265      0.38260367466971
  C   -0.93831809758484      3.81366963776843      0.27899086150376
  C   -1.05852251331908      2.40703120332412      0.29399614484407
  C   -2.34025268991220      1.80453458971171      0.21547241370564
  C   -2.46926058659779      0.39049017395871      0.23530378172635
  C   -0.60000855923416      8.05022847374879      0.27515836910735
  C   -0.69992523663903      6.64705035561157      0.25555269094786
  C   -1.97289130690601      6.04130270397456      0.14053607076673
  C   -2.09726157920098      4.62477614529693      0.16710986855843
  C   -0.36176059748625     10.90879360931580     -0.10922364991908
  C   -1.58388329769081     10.30178754378644     -0.10926097230833
  C   -1.72580385205867      8.86214520622409      0.07315854033041
  C   0.39055652718028     -9.09214445716901     -0.21281598375754
  C   0.75470058439887     -4.87378669465723      0.28510293139824
  C   0.61962713833737     -6.30610803832759      0.18318816115259
  C   -0.62762098387848     -6.92693711263151      0.21666219050159
  C   -0.77172833123504     -8.31401972834467     -0.03525650924369
  C   1.13993481213463     -0.63849037354410      0.36461441165826
  C   1.01735665206492     -2.05323849844244      0.32493378135765
  C   -0.26712673773605     -2.65302780873865      0.34894744601135
  C   -0.37213775116543     -4.04911705663025      0.40473510333872
  C   1.50988657222997      3.60874277095681      0.47158833817145
  C   1.38667803529746      2.18273368476616      0.45937188996923
  C   0.11124135285388      1.58788145551705      0.37369300395426
  C   -0.01665653890923      0.17465456765579      0.35302227236205
  C   1.90583406884604      7.83446977479215      0.39242344755565
  C   1.76474522228680      6.42366800440454      0.41587800304387
  C   0.47445665427447      5.82739039712541      0.36381915118583
  C   0.34776773217765      4.42476716394441      0.36939400406584
  C   2.16688762046860     10.67677449430094     -0.06260860514857
  C   0.84761438174932     10.21000465627052      0.30062387620428
  C   0.70493218307234      8.64578591151532      0.53460556984685
  C   2.84069763314095     -9.31395886123675     -0.36470028574933
  C   3.20171484782324     -5.08875919100008      0.00653519725197
  C   3.03566447282028     -6.47594521508133     -0.17880082166973
  C   1.78649037502609     -7.09148272848496     -0.05761311162255
  C   1.65828715496021     -8.51664451985772     -0.21541696793115
  C   3.58995189378332     -0.86005217590294      0.41611533747506
  C   3.46028554740326     -2.26710278120971      0.31146491200923
  C   2.16945496146068     -2.86800852455455      0.27644651321758
  C   2.04260471138844     -4.27781608952619      0.19507426783104
  C   3.92890155790550      3.36811990731705      0.84941207800986
  C   3.83620543669195      1.93245650011315      0.61871403896117
  C   2.55063395406725      1.36144025213619      0.49761759067674
  C   2.42521886679133     -0.04554674325602      0.42226344165860
  C   4.33075030276451      7.62471696350154      0.24784448607896
  C   4.22500407610111      6.21504312080499      0.43211799565714
  C   2.92097384144431      5.60479666036701      0.50555057312885
  C   2.76772819069614      4.21320808172003      0.58976494408823
  C   4.58480441571817     10.41080876770802     -0.18865790617560
  C   3.27561132384797      9.86906496064833      0.03438083427278
  C   3.15577414203899      8.43656185699058      0.26833498126099
  C   5.29604375453375     -9.50917115187808     -0.58736950862120
  C   5.66578594981588     -5.26541759630173     -0.08631517540026
  C   5.56609034429455     -6.65001917617585     -0.53971170683965
  C   4.17791595762399     -7.28882157853514     -0.58604475876515
  C   4.08218593895181     -8.75437062639605     -0.49621551115924
  C   6.03461826858420     -1.08805383213786      0.47080497234088
  C   5.88138103506370     -2.47688699294851      0.41149468676732
  C   4.61605827421695     -3.07618004973945      0.26087903007991
  C   4.49705006398967     -4.49087217815390      0.04865272697129
  C   6.45289134322698      3.15008369624666      0.46494917116763
  C   6.30365018439174      1.76565680638196      0.49130354849792
  C   4.99283044978222      1.15490865806487      0.56548575494472
  C   4.87737467118996     -0.26387494955828      0.48405301614193
  C   6.75389326884857      7.40195003350765     -0.02465194112460
  C   6.64719045860925      5.99773006701954      0.16345714694443
  C   5.38939940154479      5.43662780686654      0.43697525918948
  C   5.31903098877487      4.01601902972115      0.76668125607511
  C   7.02362895148056     10.19607447011846     -0.39817696752284
  C   5.71139110712138      9.63263773520550     -0.18201522851101
  C   5.60413142301884      8.20465567268001      0.02580138792067
  C   8.09945147858084     -5.53046408606685      0.03008026826542
  C   7.95994696794779     -6.94138013076586     -0.17003644650940
  C   6.73855898953549     -7.52542917909542     -0.39483632181138
  C   6.53820242166939     -8.93472628291967     -0.53897804624414
  C   8.50833619850208     -1.25701193465207      0.31092084583371
  C   8.43965288427372     -2.69957114505462      0.51581379851217
  C   7.04242874899119     -3.34733957536522      0.55990697146209
  C   6.92907921631724     -4.74214744681134      0.15616714414383
  C   8.84595474970719      2.94372799747574      0.03234565912910
  C   8.72879206082207      1.53371683991208      0.12247584502285
  C   7.45703011669204      0.93568245849970      0.34628223968875
  C   7.34710403831648     -0.47714340845985      0.41131155245781
  C   9.16176214844171      7.17745750011142     -0.32937164556801
  C   9.07419412902096      5.75956449207421     -0.18452029270465
  C   7.80654008315912      5.17012840330529      0.07199555529317
  C   7.70110746373740      3.75738707249696      0.18856042449838
  C   8.13242415859401      9.41594019234967     -0.43518394624199
  C   8.04833642862437      7.98407616950689     -0.26428028242434
  C   10.91948675058281     -1.52454040778548     -0.16255667917594
  C   10.79747995742118     -2.90545355114349     -0.15241848255768
  C   9.56748962304679     -3.54845754512404      0.10734757284685
  C   9.37781797332512     -4.91910808378861      0.01846872381824
  C   11.25505566998330      2.70530412938931     -0.37004673097105
  C   11.15286915674173      1.32845407954172     -0.29822292658884
  C   9.87777738574131      0.71941394257964     -0.04661310167335
  C   9.75980066876864     -0.68096736554062      0.03603267689851
  C   10.20749040755358      4.94021208375234     -0.31146132253850
  C   10.11862408690287      3.54480639221639     -0.21664644258914
  C   12.29630913943558      0.46970277623013     -0.47149534491919
  C   12.18130843365261     -0.88610259827920     -0.41264592158173
  H   -9.73434084272606     -1.63188544141254     -0.23590029435098
  H   -9.13922396412322      5.05421762717085     -0.42420803923855
  H   -10.56273142320992      3.04339546916876     -0.43397160380646
  H   -10.78081544632732      0.59614706789057     -0.36192028436189
  H   -7.65392638919546     -6.09887565984338     -0.16694860334525
  H   -8.68939647281839     -3.87040512767006     -0.16210547885369
  H   -6.29279020701035      9.08806875478694     -0.49724491260802
  H   -7.71737789701995      7.07397010855758     -0.43755745568527
  H   -4.63475973010254     -9.74763284255437     -0.31674865424955
  H   -6.64148615106155     -8.32647521392453     -0.25699517159917
  H   -2.67586603072726     12.14069311439876     -0.50901395954163
  H   -4.89227495255909     11.09483963878848     -0.59466183179239
  H   -2.16953423197867     -9.94815095973343     -0.26571174951402
  H   -0.27923571192043     11.95100115961936     -0.39632334435576
  H   0.29161514206642    -10.16153446890909     -0.35882699999739
  H   2.27417509579989     11.69310932992180     -0.42417019496136
  H   2.73563192321233    -10.39303889509401     -0.36336772938009
  H   4.67295994415892     11.47695230321629     -0.36132487312074
  H   5.21322687807721    -10.58848836093922     -0.65095782866869
  H   7.10053563782639     11.26841176286285     -0.53539789576611
  H   8.85130429737238     -7.55805600631120     -0.14169137735143
  H   7.41705646518239     -9.56935588755780     -0.56344839866555
  H   10.13392034948981      7.62063789529309     -0.51107301163108
  H   9.10940014766344      9.85466346088912     -0.60132310245743
  H   11.66798600015332     -3.51453618371615     -0.36808761128122
  H   10.23940058038264     -5.55149766006655     -0.16586499536125
  H   12.22075255934482      3.16174690180038     -0.55289741938373
  H   11.17112136030483      5.39766342060279     -0.50264710400688
  H   13.25928594389113      0.93053619916203     -0.65771958148435
  H   13.05235860384710     -1.51486138747431     -0.55656069208508
  O   7.82180940875699     -3.10511440745182      1.80774972546935
  O   -1.76534531584779     -5.47196865077172      1.87078464344475
  O   0.75000724159392      9.59563513109750      1.66371680525046
  O   4.84074084704400     -6.80719660582629     -1.83564661650053
  O   4.67883961170131      3.73597941206284      2.08682936140516
