188
Coordinates from ORCA-job input-ccc-3oh-2epoxy-geom
  C   -8.68267898394169      0.17472457784763      0.20277516892106
  C   -8.77096129417011     -1.17326543642918      0.06715811751539
  C   -8.27631074302203      4.42118798291016     -0.03396828645702
  C   -8.39977156363246      3.04125809092784      0.10697832169554
  C   -9.70252596142549      2.39638040465130      0.10661830418760
  C   -9.83008471640802      1.04456658496065      0.11788602212850
  C   -6.56918122979508     -4.24895591737711     -0.02692271581541
  C   -6.67173234982026     -5.64798036952801     -0.11136350541323
  C   -6.17606247659938     -0.03394532137180      0.28087534317509
  C   -6.30888241756970     -1.41947873438939      0.16947590232785
  C   -7.61241804688504     -2.03162035095550      0.10000873573300
  C   -7.71761421096062     -3.40308515065313      0.00140318481335
  C   -5.83929883473596      4.22327632895060     -0.02196972479362
  C   -5.96700034991995      2.81745098403339      0.12667141396287
  C   -7.23823619037102      2.24078917071316      0.21702696562779
  C   -7.37647270072993      0.80299357217046      0.63094477006518
  C   -5.44080959066805      8.47717595880898     -0.25959304606039
  C   -5.59652835736827      7.03847874714522     -0.27638084261086
  C   -6.85762902638917      6.44534923671468     -0.18459414903030
  C   -7.00437266657730      5.04258663582529     -0.08193324524527
  C   -4.51726728865950     -8.67944008473083     -0.26008952887180
  C   -4.11899427427853     -4.46440687362189     -0.00891751327853
  C   -4.23994865789713     -5.87316506759545     -0.08613963871184
  C   -5.53856641564662     -6.46527156899809     -0.14335110351487
  C   -5.63365640762178     -7.89536983694623     -0.23294050925570
  C   -3.74838857473171     -0.23208736608061      0.14094714634228
  C   -3.86833345559347     -1.64016391521934      0.11311276542098
  C   -5.15332806203754     -2.23958696221420      0.09588093698895
  C   -5.27522410263907     -3.65026252815537      0.01938290048989
  C   -3.38020860763860      4.00236839311085     -0.04860619488572
  C   -3.51123044756153      2.59893801171220      0.07322078629843
  C   -4.79176744614170      1.99971753622412      0.15620601595115
  C   -4.91599320436916      0.57933425661235      0.20466416453941
  C   -3.01168645755524      8.31204337451735     -0.54790440095520
  C   -3.13986656276369      6.78442565008563     -0.54471840366472
  C   -4.45182682039951      6.20444923735384     -0.29040062340411
  C   -4.55721007821550      4.82294181095051     -0.11535066892893
  C   -2.81335568770737     11.07925481397258     -0.02859739104008
  C   -4.04982136124549     10.51956717658261     -0.10426888114260
  C   -4.22947142311003      9.10006159656522     -0.28588130676285
  C   -2.05100962221692     -8.89461429343397     -0.21605386646960
  C   -1.67014047477988     -4.67749458392984      0.03332404787029
  C   -1.79179193464507     -6.09564244255454     -0.03604523170202
  C   -3.08021488990585     -6.68651449026590     -0.10581741895191
  C   -3.20045078011814     -8.10706118706103     -0.19492635205141
  C   -1.30458035266856     -0.44249570943821      0.12904374768915
  C   -1.42426924003078     -1.85694399220559      0.11463949960973
  C   -2.70461978077896     -2.45542137320514      0.09065844798979
  C   -2.82636598074443     -3.86726297432199      0.04034801117592
  C   -0.93212723672210      3.79206531911376      0.02120552300749
  C   -1.05853079720593      2.37780208416898      0.08695392586939
  C   -2.33871416747648      1.78276508254204      0.09831971492179
  C   -2.46240905497513      0.36860959411844      0.12369235257138
  C   -0.57861337926307      8.05942731527279     -0.19759823445425
  C   -0.70367852330625      6.61523325175793     -0.19241309798126
  C   -1.94731906901005      5.99815625744442     -0.24861638816670
  C   -2.08960004296858      4.59728654033818     -0.08523234210711
  C   -0.34120482418102     10.86288932493423      0.04320642397558
  C   -1.59716706831034     10.28621254504431     -0.07213320350288
  C   -1.70256497470417      8.88147337907280     -0.25153603461651
  C   0.40673036317791     -9.11894744952748     -0.14090881043894
  C   0.78075671078547     -4.89174123324956      0.09508115395295
  C   0.66122481032888     -6.31426128874879      0.05121864128117
  C   -0.63451739006856     -6.90497961394973     -0.03864558262033
  C   -0.76017894781340     -8.32466765536141     -0.13550578633670
  C   1.14499707548155     -0.65281696278783      0.17555277332099
  C   1.02433432716777     -2.06867496329108      0.15207922889107
  C   -0.26135146413605     -2.66964781104638      0.11787787524615
  C   -0.38288009214265     -4.08008933092100      0.08481352398780
  C   1.51690681164809      3.59509317187319      0.13342069636108
  C   1.39719064791833      2.16179640849643      0.18944684573963
  C   0.10562530996479      1.56599340932099      0.13532235654561
  C   -0.01699915437015      0.15790665539615      0.14863650637769
  C   1.86965821912829      7.84216092224504     -0.03585225881218
  C   1.74453535852081      6.41553103940644     -0.02589525172764
  C   0.47013044047052      5.81274351166295     -0.05660335094388
  C   0.35608949394842      4.39600529740988      0.03365553129470
  C   2.11979089533482     10.64716205460781      0.08397965981671
  C   0.83422101041511     10.07155229901398      0.01554996483276
  C   0.70919322722950      8.64984782990525     -0.07076116257399
  C   2.84347209647096     -9.35003071533804      0.04239294716784
  C   3.22537694735019     -5.10627468253680      0.12923614613753
  C   3.10670549000089     -6.51983608626471      0.14549930034712
  C   1.81288827438183     -7.11851201156680      0.08139525569586
  C   1.69149133432801     -8.55527687913859     -0.00961403711206
  C   3.59190072957893     -0.86770700028293      0.23293739377006
  C   3.47074336234365     -2.26491416037371      0.18065581661554
  C   2.18171707757482     -2.87672908099701      0.15812262506879
  C   2.05993924627157     -4.29115157934231      0.13013802342607
  C   3.97397762619192      3.40527727096605      0.20272726963206
  C   3.84725414509964      1.97634447879639      0.65030122289396
  C   2.53112810958522      1.35439697777640      0.28682798100668
  C   2.42396202133967     -0.04732111125940      0.24115863980633
  C   4.31511341251849      7.62498850714788     -0.00310928272851
  C   4.18939268161943      6.21167125424730      0.00047297372832
  C   2.90516208474617      5.60979512095254      0.02926772279151
  C   2.79447863946072      4.19727411886415      0.12577310671476
  C   4.58212993484126     10.42867333672457      0.11987058623186
  C   3.27253945268916      9.86042088078400      0.06631444945685
  C   3.14709074917911      8.43601805285243      0.00943500202109
  C   5.34794725068647     -9.57772979043646      0.03149449588580
  C   5.66755310564797     -5.31542608116448      0.04757155920582
  C   5.53223992847473     -6.73406812354997      0.06884272122399
  C   4.27625533718812     -7.31595979298834      0.18155745373782
  C   4.15129511875219     -8.78542286984196      0.49043075158408
  C   6.04269990534444     -1.08070078674275      0.10019879301287
  C   5.91402801267656     -2.49489577370322      0.07776885336999
  C   4.63596374297332     -3.08832634843092      0.12698038397144
  C   4.50920843640701     -4.50193880833902      0.10848982275505
  C   6.41364608489961      3.15344396031701      0.05072787268311
  C   6.28403660395264      1.73074170635626      0.13157632719358
  C   5.02996672763580      1.13004548416388      0.27271686435057
  C   4.88755649379980     -0.26030961928522      0.21011371288459
  C   6.75190671091764      7.39868256327650     -0.08184809160481
  C   6.60892273844597      6.00898552355169     -0.14825465385436
  C   5.34794175106714      5.40287991899890     -0.03610233115958
  C   5.22192219805331      3.97632241793510      0.06299703746832
  C   7.04125444451429     10.21851577543824      0.16455048458718
  C   5.71476200880505      9.64682203227817      0.09007507233408
  C   5.59933356987738      8.21507534698592     -0.00063296773618
  C   8.11996492028692     -5.54135815962534     -0.09610964435495
  C   7.95042082218648     -6.96524838109761     -0.14526319488167
  C   6.71604777653717     -7.55281132003062     -0.06455229586848
  C   6.54054335261028     -8.99116633126426     -0.16259288862658
  C   8.48977706771453     -1.30655286950089     -0.02546444703036
  C   8.36166661710611     -2.71455791439059     -0.04209513578400
  C   7.07744761933484     -3.31315485498404      0.00373937398636
  C   6.94850119440118     -4.71906922018116     -0.01631920966858
  C   8.84592878018165      2.93284751829123     -0.10269934960950
  C   8.73344436584603      1.52387189101606     -0.04774693708651
  C   7.44737105075172      0.92101909057108      0.02772422286086
  C   7.32439376119865     -0.48622078813457      0.03424687983817
  C   9.20903724864149      7.24032267171830     -0.04037167604538
  C   9.16629836872712      5.81196671259656     -0.33692046516361
  C   7.77210983032378      5.15724068465324     -0.39281310909941
  C   7.66708829582683      3.72018088819184     -0.11840079542476
  C   8.15156297987132      9.44250457498869      0.13537071866711
  C   8.07738657540900      8.00263056438292     -0.01457571284073
  C   10.93697887550238     -1.53485201679360     -0.09595950383536
  C   10.79925345560113     -2.91803379546972     -0.12387528887096
  C   9.52818086741999     -3.53719296597008     -0.10323761825475
  C   9.37531376761593     -4.94325306492475     -0.13641952217896
  C   11.29068621311230      2.69889381992501     -0.04496815189509
  C   11.18495804551048      1.31253811927762     -0.06013160668360
  C   9.89289778358251      0.70309588230027     -0.05642761307223
  C   9.76948654786810     -0.70590399322297     -0.05976565699049
  C   10.29482044220040      4.93604700368081     -0.06136602447907
  C   10.15086039933426      3.54320034631381     -0.08375355650701
  C   12.34466334423960      0.46080435255032     -0.07668170652351
  C   12.22655132793706     -0.89645171410561     -0.10118327966137
  H   -9.73859143641653     -1.63283686996070     -0.10777620054142
  H   -9.16697620337338      5.03368607953463     -0.11329181820966
  H   -10.58058218877482      3.02842103252694      0.03928955195148
  H   -10.81135290715322      0.58934939136103      0.03298100445376
  H   -7.65421700649437     -6.10396735017122     -0.15289781018092
  H   -8.69882250256255     -3.85951100273786     -0.06504562561802
  H   -6.34011279217958      9.07280678795445     -0.14674302836529
  H   -7.74347950192875      7.06975250561508     -0.18530480734084
  H   -4.60651570166312     -9.75738646224342     -0.32926747373120
  H   -6.61915479135604     -8.34410135896817     -0.28011743738704
  H   -2.70966515546730     12.15049203134598      0.09846584477550
  H   -4.93546199035432     11.13946344275497     -0.02140418321798
  H   -2.14573078790736     -9.97167587975005     -0.29051527067531
  H   -0.25027335143809     11.93782652982745      0.14591666894970
  H   0.31144742799484    -10.19546327092995     -0.22126328115671
  H   2.21164608755604     11.72521961602599      0.14646800505001
  H   2.75297067673539    -10.42690725546431     -0.03941878075877
  H   4.67748636143350     11.50632095180360      0.18585301788455
  H   5.23171475989661    -10.65342655337484     -0.03572795195877
  H   7.12755634546693     11.29545098983411      0.25182421964660
  H   8.83280114472978     -7.58535869287407     -0.25531229749831
  H   7.41146642147005     -9.58736351387192     -0.41261227375139
  H   10.17519855884833      7.70230985982177      0.12676089901750
  H   9.13520222034224      9.89250803354234      0.20239579902914
  H   11.68590791421213     -3.54030555622969     -0.16080438243135
  H   10.26061667839445     -5.56605471149060     -0.19351646311498
  H   12.27350539109520      3.15490248982871     -0.02726120165212
  H   11.27323710951846      5.37279316084754      0.09954577036830
  H   13.32347649313582      0.92605972623610     -0.07636873179910
  H   13.11027751720694     -1.52357311868383     -0.12268951709420
  O   3.91960685665715      1.98380581124288      2.11778523768185
  H   3.14702925572637      2.45976424019907      2.49179462656319
  O   -7.35735633972525      0.79573961277622      2.10067962559955
  H   -8.07840818037480      1.36382917967629      2.44695507691151
  O   4.18444737749031     -8.94687394256736      1.95837730473090
  H   3.44190518167847     -8.45309456007459      2.36816666131736
  O   -3.05410707012964      7.54914297337485     -1.83065974639136
  O   8.48403443296437      5.47679490874251     -1.65764250574951
