189
Coordinates from ORCA-job input-ccc-4oh-1epoxy-geom
  C   -8.62322613219192      0.20398921436985     -0.13778767994802
  C   -8.72936872938955     -1.17995524625361     -0.23186374549025
  C   -8.25206169783793      4.41106648743810     -0.36654178100297
  C   -8.41205988904107      3.07520016363748     -0.17247557412837
  C   -9.68108218457825      2.40998423275728     -0.33924984686713
  C   -9.78760997127688      1.05975251192986     -0.29268932361618
  C   -6.54723395248949     -4.22499743196263     -0.09373622015660
  C   -6.64067414246571     -5.64706159160894     -0.14444427353023
  C   -6.20101035243145      0.01273973639449      0.10149792680861
  C   -6.30288587797669     -1.40253165551771      0.01405773761249
  C   -7.58721810514161     -2.00826222659344     -0.13261804516461
  C   -7.68097989323133     -3.41629179068068     -0.18305318227690
  C   -5.80385419911445      4.23927518837706     -0.03429500780828
  C   -5.92564253051895      2.85752424261135      0.11989763640043
  C   -7.27520515260481      2.25941937974722      0.40095820482764
  C   -7.35631009016778      0.79190222138789      0.06786630453626
  C   -5.40218014242074      8.45760780997680     -0.43647580674792
  C   -5.55251053304399      7.06235309567566     -0.31054526377061
  C   -6.82538455376493      6.42712571651474     -0.38749720826340
  C   -6.96893129935034      5.06102578065654     -0.24859307400801
  C   -4.49952345481517     -8.66770228915094     -0.12339110379280
  C   -4.09596134080887     -4.43104087542402      0.12307552215113
  C   -4.21563815503879     -5.85152442808867      0.03722898867134
  C   -5.51959879896710     -6.44873872005279     -0.08538945985517
  C   -5.61083063123851     -7.88676902850235     -0.15339938912837
  C   -3.75193178739009     -0.18751392193181      0.24613256985524
  C   -3.86021478145933     -1.60935673141429      0.21718508364494
  C   -5.14326124383386     -2.21391187455929      0.09173478849827
  C   -5.25871535419584     -3.62116628949509      0.04506916656882
  C   -3.36420380771977      4.04257977296329      0.13806944532475
  C   -3.49140700519751      2.63221356356300      0.19455431796530
  C   -4.78390408707056      2.03575911125565      0.18480431703738
  C   -4.90441316434707      0.62021443102770      0.20272272275323
  C   -2.99077025276692      8.26893328748775     -0.12371524621793
  C   -3.11607594322659      6.86378295073173     -0.01751664391142
  C   -4.39468232818505      6.25499729493432     -0.11008184619789
  C   -4.52074662807034      4.85215526779092     -0.00274397447760
  C   -2.75535262153788     11.07779435126489     -0.37427002289777
  C   -3.98395077620954     10.49182758586780     -0.47721168004992
  C   -4.15220246581039      9.06962773760665     -0.35052956589264
  C   -2.04396169037956     -8.87534329343968     -0.01584542860528
  C   -1.65822000021651     -4.65157678998202      0.28224949251059
  C   -1.78103321094247     -6.06535650980774      0.15226730290008
  C   -3.06926249753933     -6.65887814698896      0.05707533893883
  C   -3.18121952230774     -8.09160879285862     -0.02672458121835
  C   -1.30065586547124     -0.41725762264371      0.38186996334459
  C   -1.43603515511358     -1.80763347959215      0.45155393267228
  C   -2.69722876164939     -2.41188751562321      0.32017289440074
  C   -2.82390057593758     -3.83778010300712      0.26463854142698
  C   -0.92271382649251      3.82795348226557      0.27673745936868
  C   -1.04761561471384      2.42217376705208      0.29143622879076
  C   -2.33179428931270      1.81852585303899      0.26426101596045
  C   -2.45781741001744      0.40847608410040      0.29551003306646
  C   -0.59694283954660      8.07299121139652      0.27020329745101
  C   -0.68677680277493      6.67375296656991      0.29634253918944
  C   -1.95883216006885      6.05917544288813      0.16529864703929
  C   -2.08147959940315      4.64540151020269      0.20254444825774
  C   -0.31768532825759     10.89702324408424     -0.03628898291988
  C   -1.57060114773478     10.30574859670769     -0.12080673017509
  C   -1.71586477954908      8.87168853837354      0.00643911543191
  C   0.41469213102290     -9.09054905544072      0.05226584071836
  C   0.77037294873389     -4.86223224640015      0.27779056542435
  C   0.65666612061093     -6.28091818818802      0.17152968784077
  C   -0.62357338388267     -6.87632975550461      0.13212032014560
  C   -0.74315289676454     -8.30446120142035      0.05685810786371
  C   1.15651919888119     -0.62593459493716      0.32482139304331
  C   1.04789566733549     -2.02389196901838      0.40296522500143
  C   -0.25054750661039     -2.64237322917885      0.83100217606936
  C   -0.38019747575911     -4.07274640367076      0.39379708613751
  C   1.51939005477995      3.61750205333222      0.24666739786378
  C   1.39641953498155      2.20447271630838      0.23347236322896
  C   0.11357440527439      1.59663718421992      0.30888484809707
  C   -0.00937149617477      0.19524708481883      0.36227807745794
  C   1.92758452839098      7.84390094860377      0.62946802519785
  C   1.76958360528604      6.41196098124823      0.39672412451879
  C   0.49098290189246      5.84581280406071      0.36313862500177
  C   0.36125854668989      4.43297839515261      0.30409702460804
  C   2.13067985544804     10.67588606632594      0.23702200406655
  C   0.85552972713848     10.14788704471658      0.23960372292674
  C   0.67555048528857      8.72266941612164      0.56749044540003
  C   2.87709371078546     -9.30051197166685      0.08918565096894
  C   3.21704526736849     -5.06532416931409      0.13533457290894
  C   3.09986169236150     -6.48952263679484      0.11603498935812
  C   1.82078690221216     -7.08672359651790      0.12741881825057
  C   1.69698905521946     -8.51421761865462      0.08929065866129
  C   3.58820477235862     -0.83277950319955      0.07699162461199
  C   3.46624900239583     -2.24501930645162      0.10766939622729
  C   2.18521266747048     -2.83659385100557      0.25665577481446
  C   2.06677414779601     -4.26145758812218      0.24107578029556
  C   3.96112893020103      3.41272469975647      0.01172690905538
  C   3.83038987174659      1.98892283404923     -0.00541642292273
  C   2.56265676365508      1.39471556786976      0.12879766737750
  C   2.43295748135945     -0.02544381875635      0.16963597711031
  C   4.34537817403521      7.65099618956254      0.22363846904293
  C   4.21475688645091      6.22459070985034      0.17426044380309
  C   2.92601951746234      5.62363148835292      0.24433012211698
  C   2.80072177777295      4.21451526379799      0.17442504867893
  C   4.60218687946111     10.44437971907250      0.21230778299379
  C   3.31480388358182      9.86835146952961      0.30413739196393
  C   3.21778373289726      8.46332086249514      0.36808294554214
  C   5.33952748990949     -9.51820186079249      0.09687609843892
  C   5.67080717146601     -5.27926301573129     -0.05023315387680
  C   5.54294974603945     -6.69809208697195      0.01671766732018
  C   4.26756072748162     -7.29323703156843      0.07707662116453
  C   4.13739738473083     -8.72378386092060      0.09050005340814
  C   6.02402733304277     -1.04761732364722     -0.14840975156824
  C   5.90135832136838     -2.46256330693780     -0.13256505729149
  C   4.62461927474992     -3.06028244025569      0.00153986644180
  C   4.50188154280978     -4.46864143039727      0.02924236564703
  C   6.38409924502591      3.20777912949968     -0.59836960893620
  C   6.26890473247433      1.75683168370178     -0.24961108905249
  C   4.99898387643334      1.17621917630756     -0.11117848599047
  C   4.86798896360803     -0.23491865116158     -0.05451055451235
  C   6.78879997479607      7.41113371703438      0.04935614650282
  C   6.65965987354022      6.01773031159807     -0.03374446687292
  C   5.35541976867241      5.41849776819856     -0.00047331577083
  C   5.21500450344884      4.02126405047765     -0.12316394235768
  C   7.07398922031110     10.23711165869874      0.12876968672140
  C   5.75348868532537      9.65708980629742      0.16076157792936
  C   5.63257064287564      8.23784536414821      0.13389042178184
  C   8.12451185247097     -5.49917347103660     -0.21083478113737
  C   7.97251777368890     -6.90898357417392     -0.07026669215819
  C   6.72466857890829     -7.50836425158217      0.00863719416557
  C   6.57108173500291     -8.94013149556007      0.06765264927285
  C   8.46300779912118     -1.26829129582329     -0.33473255760111
  C   8.32159137296091     -2.66228461049069     -0.42903915953815
  C   7.06398573078019     -3.26907341931802     -0.26399159323935
  C   6.93569743683524     -4.68519181832495     -0.18704557562946
  C   8.84051051969337      2.97957536675245     -0.17219721291956
  C   8.72094150918569      1.56216502664475     -0.23949255281591
  C   7.42288116713475      0.96570489475313     -0.24993842308203
  C   7.30121500632341     -0.45065419014374     -0.23291355259652
  C   9.21847039169261      7.20604593013017      0.06964717627605
  C   9.11760883157202      5.79293026007911      0.01441994849096
  C   7.82011168151044      5.19026811787485     -0.08751085810146
  C   7.71240777331795      3.80251509031242     -0.22219934196524
  C   8.18531514250546      9.45240287711988      0.09934706929855
  C   8.09415812237562      8.01496086335953      0.06741730545365
  C   10.91117612821744     -1.50933970207879     -0.27214670919527
  C   10.79649238804506     -2.86355655851902     -0.44618769868957
  C   9.49851896656725     -3.49068203893333     -0.84848187249022
  C   9.36433924711495     -4.90779789634883     -0.40524188027285
  C   11.28514047523966      2.71628673552514      0.00908285834700
  C   11.17064360950338      1.34741294433595     -0.07551609066229
  C   9.86447678048307      0.73971206985617     -0.21333442450736
  C   9.74706568147918     -0.66376337179042     -0.29573529211821
  C   10.25529194951647      4.96240373453080      0.03396548492053
  C   10.14249574065804      3.57295562874563     -0.03542783334808
  C   12.32275872577492      0.47619650622662     -0.00361518849538
  C   12.20080933668018     -0.87246622871795     -0.08128105883581
  H   -9.70163635606775     -1.63548317858321     -0.37914975141067
  H   -9.10531826841423      5.01902378580602     -0.64970833706413
  H   -10.55512247499478      3.02173840910219     -0.53652422761435
  H   -10.75147050859498      0.58215457361885     -0.42622333663698
  H   -7.61982277823131     -6.10178601063630     -0.24090239183361
  H   -8.65628363039967     -3.87610523929957     -0.29345444087839
  H   -6.28184042760773      9.06921973992540     -0.60057992576977
  H   -7.70181497876385      7.03969253000387     -0.56665302858269
  H   -4.58396430039666     -9.74690011844117     -0.17747504568860
  H   -6.59504705496588     -8.33344842602957     -0.23435992783258
  H   -2.65369008645543     12.15180339980651     -0.47851646776503
  H   -4.86330031647058     11.09853124073514     -0.65952512857416
  H   -2.13761610296037     -9.95354820771168     -0.07388748933535
  H   -0.22467668161450     11.96398001357565     -0.20461045005996
  H   0.32221200654868    -10.16960561779316      0.01068959750631
  H   2.25649594502962     11.74374627090541      0.09551143911090
  H   2.78520297483536    -10.38041596910303      0.08417253420977
  H   4.69625677221455     11.52379404235619      0.18292417627122
  H   5.24004604664047    -10.59708390596272      0.12486022512318
  H   7.16255368297508     11.31697172121030      0.14476917879278
  H   8.86161086270524     -7.52895543036629     -0.06892206847192
  H   7.46553613127687     -9.55217663181076      0.07387463094172
  H   10.20232209922573      7.65898794769289      0.11308250733330
  H   9.17192984788233      9.90129342081871      0.09665043198433
  H   11.67824165752304     -3.49369926142185     -0.43137414111869
  H   10.25511026239364     -5.52531028265152     -0.41106346465516
  H   12.26561581768848      3.16581166964844      0.11804903877074
  H   11.23803026056923      5.41429968924396      0.10599641827188
  H   13.29849292762982      0.93309613145389      0.11638191177718
  H   13.07807582542451     -1.50682008052853     -0.02994621302400
  O   -7.44740734959754      2.25920541564469      1.85872660453815
  H   -7.44897667249332      3.18108169953248      2.19460563814607
  O   9.55686154605950     -3.54026737503601     -2.32829367507656
  H   8.65209114311443     -3.61219907225493     -2.70367726344082
  O   6.37822777109870      3.31120110341420     -2.06637119231581
  H   5.63383626439548      2.79154483761431     -2.43935381927401
  O   -0.27687328229925     -2.63875015783670      2.30150372730316
  H   0.44985704991162     -3.19316385751519      2.65957606097973
  O   1.25377150791684      8.32074912741913      1.88055229265309
