192
Coordinates from ORCA-job input-ccc-5oh-2epoxy-geom
  C   -8.68512662383128      0.18213093035556      0.07390143042304
  C   -8.73864517813135     -1.17891119143712     -0.01470353191556
  C   -8.23235529529436      4.41992718752231     -0.20657000415870
  C   -8.37713366870217      3.04387269165772     -0.06973999971315
  C   -9.66509506202088      2.39687506916263     -0.23139253678723
  C   -9.80609304238298      1.04494998717048     -0.19086158021029
  C   -6.52758518892032     -4.19364060947975     -0.25367127748575
  C   -6.69405781925033     -5.65564294357152     -0.59309577701017
  C   -6.18059953011155     -0.04053472556766      0.59009971398987
  C   -6.30155673973117     -1.45319465929640      0.25221080212819
  C   -7.56906856347784     -2.01462922536352      0.05850822055072
  C   -7.65758814531035     -3.40821760571384     -0.18048147946465
  C   -5.81345948509229      4.22540995745431      0.13800609587366
  C   -5.96201056028307      2.82323992489085      0.29046681149277
  C   -7.23932611188180      2.25673015930608      0.22336456403751
  C   -7.42869122483692      0.83221116399754      0.48137076057874
  C   -5.41938747011558      8.45026505732509     -0.32502720208787
  C   -5.56880752387832      7.04306276256834     -0.17490344552990
  C   -6.82151997236873      6.43373294089421     -0.22623387148985
  C   -6.96805244851258      5.03506100616699     -0.09146109743771
  C   -4.43069363491382     -8.66938019443165     -0.32239160958723
  C   -4.07484401176426     -4.43819767939126     -0.04996233065715
  C   -4.19851893296498     -5.86730227538468     -0.17683695136785
  C   -5.44304596591233     -6.47009707344520     -0.37673343448642
  C   -5.55634234396939     -7.86587504493660     -0.42343305879424
  C   -3.73242256713405     -0.20715709009530      0.41408933834046
  C   -3.84642095882422     -1.63122327620704      0.30049808354173
  C   -5.13668044437398     -2.23306136828703      0.16412731400027
  C   -5.24367029693258     -3.62982675579041     -0.05895316803229
  C   -3.36746642566856      4.03204434168798      0.36720819027733
  C   -3.49366086775866      2.60364941536361      0.47033480719868
  C   -4.78070521072238      1.99842039159919      0.42864711478614
  C   -4.87522602654873      0.60351875769154      0.46015449067350
  C   -2.99679659427212      8.25045736466915     -0.15440577718208
  C   -3.12469738665811      6.84146997839418      0.01172499235368
  C   -4.39890529041772      6.23589017001114      0.01457616210911
  C   -4.52313521487501      4.82885395193369      0.18493096405318
  C   -2.79457959273617     11.05919015714389     -0.46801874813798
  C   -4.02322389558216     10.47845999469424     -0.46661124604180
  C   -4.17804954990848      9.05338603983254     -0.31372656162063
  C   -1.98012365102669     -8.88608111287986     -0.07255528638801
  C   -1.63612060760495     -4.66570998038108      0.17610939553302
  C   -1.75664887799659     -6.08304669641814      0.08627809024550
  C   -3.03841471750549     -6.67826279759288     -0.07940123364350
  C   -3.15585025849075     -8.09090141395888     -0.16401226948416
  C   -1.28075486729455     -0.42749333632659      0.48391213230873
  C   -1.39915489626530     -1.82837041508908      0.39079513696949
  C   -2.69643404717136     -2.43164422423264      0.28040646928243
  C   -2.81240591226446     -3.85102560428499      0.13460489482301
  C   -0.91432175885187      3.85703140729748      0.51623290126821
  C   -1.04123313620514      2.42111563284189      0.95101395273652
  C   -2.35273513110411      1.79646096478379      0.57399425957318
  C   -2.45075436810365      0.39853854159859      0.49474562765311
  C   -0.56060108035495      8.05082020159451     -0.02775152087113
  C   -0.68203524348578      6.64109561134478      0.13026489818329
  C   -1.96111860373365      6.03980624194200      0.16481624773888
  C   -2.08254052086934      4.63460402866257      0.36085733103781
  C   -0.34093697004790     10.85011120500222     -0.33107110285778
  C   -1.59505708258312     10.27328655669342     -0.32226355053432
  C   -1.72826753200955      8.84944916547872     -0.16515186720551
  C   0.44576291745668     -9.22723556182391      0.27372426256569
  C   0.80622447423723     -4.89467130477146      0.31977471568994
  C   0.68514289252158     -6.30082101258237      0.24090294098300
  C   -0.60403115683319     -6.89952030764563      0.15382598751508
  C   -0.74706551271281     -8.31501651562810      0.09783976874583
  C   1.17040302229042     -0.63849860659363      0.44231862058694
  C   1.04846370643796     -2.05332937853416      0.42928607966267
  C   -0.23652329303473     -2.65170894345946      0.38064190679045
  C   -0.36129495045629     -4.07218413995949      0.30263349278306
  C   1.53103370641773      3.60802096425024      0.43006371382864
  C   1.40523548015678      2.18772827659134      0.47039646272680
  C   0.14294272369667      1.57962037692005      0.57275278296774
  C   0.00915886956926      0.18502239082284      0.50786909470562
  C   1.87877627039674      7.84723744068686      0.06978783151960
  C   1.75885530570304      6.43570475688705      0.20146036741113
  C   0.48254556635180      5.83819996729417      0.24069043039761
  C   0.34841911362060      4.42553589671806      0.40929527779365
  C   2.11228369336392     10.64870920194399     -0.20337368837378
  C   0.84277637293244     10.07033349529062     -0.19708470004046
  C   0.71726601671976      8.64813237611828     -0.05070908368943
  C   2.89700517663361     -9.28797526664657     -0.12722862521221
  C   3.23436834097702     -5.11449070932052      0.35054621719866
  C   3.13264556642708     -6.50823668908460      0.16046191060274
  C   1.85552966351429     -7.11716297362295      0.16745468365366
  C   1.76782036674332     -8.52679474573630      0.07903017182506
  C   3.60872253812983     -0.84601153002506      0.36171455579620
  C   3.47743447359485     -2.23919221009533      0.45705578588761
  C   2.22394386708997     -2.86077223601191      0.45153350917344
  C   2.10416449114701     -4.29784043231012      0.40028729365470
  C   3.96660011338044      3.38758728320536      0.26208339120585
  C   3.84747671425755      1.98005413040736      0.27908862942504
  C   2.56863617834973      1.37975257296883      0.37620021339201
  C   2.44717768217510     -0.03293473390521      0.39273023383878
  C   4.32595933819720      7.65288876591734      0.20385240695384
  C   4.20090079234049      6.22351517632424      0.26892855940112
  C   2.93520343027808      5.63022371965229      0.27707136771511
  C   2.80016115949298      4.19896349853266      0.33470612264154
  C   4.56956112163403     10.44216719022082     -0.06742677899671
  C   3.28071936930857      9.86570306956511     -0.06958162035242
  C   3.15936640976300      8.44915792237732      0.06251914652349
  C   5.35582373783275     -9.48137777682282     -0.43063254609909
  C   5.74406025464306     -5.31724418684064      0.15429864801573
  C   5.59804599000700     -6.69682040936053     -0.05911866787532
  C   4.30648805552137     -7.30354927225836     -0.01920581962175
  C   4.18171137779762     -8.69561805438042     -0.19693953649575
  C   6.06652067489413     -1.04695803288421      0.14708681416379
  C   5.98243186174247     -2.44329164444155      0.26217317703405
  C   4.69303270428139     -3.03446798761729      0.61079093914994
  C   4.56543564509278     -4.54716593711345      0.55344259691150
  C   6.40193189912291      3.19249929757798      0.01813244746943
  C   6.28808462311069      1.76280982145922      0.00272694059149
  C   5.00996884331998      1.16045661558363      0.18709171507299
  C   4.89667589803321     -0.23967660333464      0.24462516718119
  C   6.78740957498224      7.44582293260661      0.62857063803430
  C   6.64938482116861      5.99719001021721      0.25003247744052
  C   5.38182636469045      5.41242797227070      0.24187165331742
  C   5.25632480795153      3.99073425675694      0.16562624437073
  C   7.03672643652770     10.25247515994394      0.06815166117683
  C   5.71023982859104      9.65927512289941      0.09681003859500
  C   5.57929150783307      8.26445024736837      0.25419301571802
  C   8.15205979318518     -5.48624070796118     -0.19306044300684
  C   8.01131779881058     -6.87455234683262     -0.34669597503275
  C   6.75602636519925     -7.49272072587440     -0.30472466084340
  C   6.59391193918932     -8.90364205718816     -0.48694657982923
  C   8.49502388519403     -1.24908781034101     -0.16712529515588
  C   8.38183032789718     -2.64308679057109     -0.09878201127567
  C   7.10707173159553     -3.25475959074418      0.09309318022319
  C   6.98523380992176     -4.68916976798479      0.04557190046299
  C   8.83676188597566      3.01797601721637     -0.24914866451668
  C   8.69295421220665      1.58306010577423     -0.65476671595391
  C   7.41182061667088      0.96038651074103     -0.18121839984006
  C   7.32915279987095     -0.43574194750913     -0.07902929469974
  C   9.18383960005470      7.26175265209191      0.00535349303428
  C   9.09667769321942      5.81946352750560     -0.00225065053380
  C   7.80023601861182      5.21112664428198      0.07763809146351
  C   7.68697073924306      3.80077340937900     -0.06411661849302
  C   8.15838592578311      9.49336995048449      0.08396108348606
  C   8.09536555820759      8.05481003298374      0.17561318315677
  C   10.96410349757012     -1.45705864355925     -0.28052158082164
  C   10.83205323218976     -2.83652058777886     -0.27481454174830
  C   9.55921962717160     -3.46896258024661     -0.21296507648280
  C   9.42186848052540     -4.85266248747320     -0.26827964409022
  C   11.27157316861411      2.77637014997517     -0.35134981169588
  C   11.18315131438433      1.38382877670083     -0.36252201689612
  C   9.90591185102570      0.74956939986665     -0.35769041511898
  C   9.78863648693382     -0.62646797958376     -0.27550635827544
  C   10.21757729365585      5.02022423045889     -0.13761893262651
  C   10.11343560787376      3.60496961489868     -0.24965428968247
  C   12.35334874889802      0.54781688568107     -0.34985168693123
  C   12.24728957901606     -0.81250758573528     -0.32494269415109
  H   -9.68426653342734     -1.65987791832582     -0.23899312585778
  H   -9.10142388946852      5.03381934320933     -0.41143939506689
  H   -10.52405577604554      3.02767594741773     -0.42777832681664
  H   -10.77253685344405      0.58855929077301     -0.37229295207543
  H   -6.96626726609592     -5.73113225906186     -1.64994619360539
  H   -8.62413550511839     -3.87510784640286     -0.32039251612888
  H   -6.30831376108318      9.05608509577515     -0.45661778728787
  H   -7.70395585412942      7.04173267035126     -0.38699336706330
  H   -4.51952321145407     -9.74836275744921     -0.36725678058908
  H   -6.54434229925501     -8.29172010622799     -0.53833669423225
  H   -2.69296185436913     12.13216646315237     -0.58288483923487
  H   -4.91699581764075     11.08061745239654     -0.58177550659771
  H   -2.05116429514065     -9.96416747842763     -0.13417282309432
  H   -0.24653339719634     11.92385325052103     -0.44474800040045
  H   0.42360205586836     -9.61673333458162      1.29570112232747
  H   2.20772432635232     11.72300349507020     -0.31002348417241
  H   2.78598551982913    -10.35965614310592     -0.22920462232461
  H   4.66907567389793     11.51455056491177     -0.18851419417309
  H   5.24168808128450    -10.55068657075459     -0.56461152798803
  H   7.10637173836848     11.33077136536281     -0.01795651332161
  H   8.89445535806754     -7.47979465165656     -0.51495420786286
  H   7.47489502433300     -9.50776702270375     -0.66944821340552
  H   10.15340676877416      7.71247824277417     -0.18123281562068
  H   9.13477905826200      9.95580934013017     -0.01607631284459
  H   11.71934672852344     -3.45740800779587     -0.31995722830716
  H   10.30500706421117     -5.46942889109239     -0.38856875314039
  H   12.24837157284733      3.24604717087763     -0.36228501402962
  H   11.19967634640562      5.47800482187239     -0.18023720904111
  H   13.32762321107665      1.02305852412188     -0.36261615956185
  H   13.13578425287180     -1.43320488920263     -0.32903308980113
  O   -7.84138621055309     -6.23699030973136      0.06881720983701
  H   -7.72839599342443     -6.21389701011553      1.04277290168391
  O   0.33724272703187    -10.42485706383714     -0.52781762913104
  H   0.33170239185231    -10.19931483247855     -1.48270895131237
  O   8.52269798671811      1.57080292443586     -2.11855399627480
  H   9.29306229723505      2.00379420725866     -2.54486727537908
  O   6.77471802364944      7.51619711888514      2.09327763271591
  H   7.55461626424809      7.04505979807280      2.45677088583588
  O   -1.02729539343959      2.53871747008716      2.41592095343154
  H   -1.13501747070870      1.65446934027492      2.82774499444542
  O   -6.92660749524923      0.37639080279823      1.81615196183262
  O   4.72207402646591     -3.84881827197359      1.86836855288071
