188
Coordinates from ORCA-job input-ccc-1oh-6epoxy-geom
  C   -8.63885848724973      0.21340146845010     -0.01243818766280
  C   -8.73856517082086     -1.17354172947558      0.01580229244183
  C   -8.25081174163543      4.44614754549172     -0.17399885469839
  C   -8.38196528268422      3.05776436106609     -0.10625094586691
  C   -9.67072390609588      2.41827617006128     -0.18493202535655
  C   -9.79257256610265      1.06244345147713     -0.14996730852825
  C   -6.55845432997435     -4.23017446844405      0.16568469889272
  C   -6.64935477873837     -5.63866912967407      0.10548166200857
  C   -6.22176271815108      0.00775502149338      0.29941729103369
  C   -6.31007850323989     -1.38281755741114      0.28870232018417
  C   -7.59680204275015     -1.99963698994266      0.13691924678461
  C   -7.69576828417468     -3.40518385710986      0.10137324232344
  C   -5.81416635039268      4.25998185725600     -0.05683112745260
  C   -5.93895367541060      2.85590945733400      0.06383236118874
  C   -7.22381361750230      2.24107942850259      0.03494943124194
  C   -7.35241911271087      0.82602770257640      0.10450855978851
  C   -5.41906622922502      8.49277159695101     -0.12007350147121
  C   -5.57980327570135      7.08296541228609     -0.16693767443309
  C   -6.84006340517738      6.47783431366284     -0.17968489789330
  C   -6.98752313023805      5.07544167950996     -0.14326906515957
  C   -4.50572681593132     -8.68241236390034      0.04302797336886
  C   -4.10755880292367     -4.44396783492968      0.32148295674440
  C   -4.22501298980456     -5.87276142578026      0.24914852691726
  C   -5.51298681710659     -6.45689729864171      0.14035577918895
  C   -5.61530514046358     -7.89011979822698      0.04956222806137
  C   -3.68937231781017     -0.21211606412439      0.62936097154166
  C   -3.84830866546225     -1.65392439614993      0.44844681610102
  C   -5.13182629682925     -2.21652378755705      0.36331325515051
  C   -5.26312893528471     -3.62524938189329      0.28088842298618
  C   -3.37220454069872      4.03273820542792     -0.02383160703850
  C   -3.50618079466425      2.62288874991341      0.14397548150476
  C   -4.77817764393197      2.06905112916140      0.23254444035635
  C   -4.93967078627156      0.65793757785082      0.56697161418133
  C   -2.97504209315277      8.29647967609555     -0.22758574647144
  C   -3.12167008465739      6.86745499683376     -0.22100952103289
  C   -4.39884847176186      6.26914544798793     -0.16225083904218
  C   -4.53031878055993      4.85595544272989     -0.07952505104016
  C   -2.80265609031263     11.07454979700127      0.17740523151318
  C   -4.02903792930710     10.50367305239854      0.08103050316130
  C   -4.17189690622734      9.08869168548013     -0.10196792736020
  C   -2.03772022720085     -8.90099123296893      0.11282645698911
  C   -1.67938750564483     -4.70029631414649      0.64113603157930
  C   -1.78307527296680     -6.12983740961381      0.36271182231432
  C   -3.06637625863647     -6.69441372963401      0.24613562432749
  C   -3.18776975271495     -8.11652049282474      0.13002849879404
  C   -1.26688322156903     -0.42172927862998      0.18338928105615
  C   -1.37989434503877     -1.84335039834220      0.33423375685818
  C   -2.69529547727267     -2.45493667550036      0.42834931502260
  C   -2.84358833771990     -3.84784777840107      0.43669323113691
  C   -0.92870307563404      3.79710836571287     -0.17263046552317
  C   -1.05046433857244      2.39219847271862     -0.05672413561355
  C   -2.32412747718383      1.78989326456284      0.15566671856738
  C   -2.40898024619320      0.40760247925819      0.30039115364437
  C   -0.57378829590524      8.02113597458268     -0.48509781235613
  C   -0.69518708483670      6.61100895125868     -0.34697017360646
  C   -1.97286317439770      6.02743249854763     -0.22955636481724
  C   -2.09612341424626      4.62143978492990     -0.13400752666966
  C   -0.39557200685527     11.06441639813135      0.24376696088391
  C   -1.57031431586319     10.34006586263633     -0.01844173758557
  C   -1.69878707197908      8.90574262601705     -0.30479330567666
  C   0.42250463917170     -9.12021785376141      0.10156267971633
  C   0.83276162466896     -4.90684504573574      0.24367614321156
  C   0.67954368232293     -6.29967373432304      0.21411217636124
  C   -0.62625062465532     -6.90461027634760      0.27284618048189
  C   -0.74684593501617     -8.32946774540138      0.16180350548652
  C   1.15563854498911     -0.66190751909894     -0.13491299909862
  C   1.03729855228411     -2.05931028668103      0.03552349506649
  C   -0.23248220081094     -2.62124615504928      0.29704413142159
  C   -0.30500933946227     -4.05514297734212      0.57790285456678
  C   1.50513549945239      3.56529193989459     -0.43286404612117
  C   1.35445575543445      2.17777768768965     -0.41191705405954
  C   0.10666974014147      1.57947175546136     -0.16868065979805
  C   -0.00558005777800      0.16002699828235     -0.05303760760249
  C   1.87946671361241      7.79271640478426     -0.51288364223342
  C   1.75561880353838      6.38485457811380     -0.42635629039606
  C   0.46955751085557      5.79955336875456     -0.37961827072840
  C   0.34588259579208      4.38476969264525     -0.32705708325235
  C   2.15928662250981     10.75314810525471      0.37751997616421
  C   0.90005883341392     10.64338996498296     -0.14343049854992
  C   0.70401332294997      8.49008659569164     -0.76131427108627
  C   2.87380136969412     -9.34942960668366      0.01203390567061
  C   3.22692398645410     -5.11491818664175     -0.15045115527115
  C   3.10118995294837     -6.53191272173851     -0.09817332017730
  C   1.83344533925723     -7.11774291049839      0.05650748817955
  C   1.69766352121573     -8.55301934774871      0.06094580663717
  C   3.57815803421083     -0.87665466584415     -0.37035573096460
  C   3.46321071933550     -2.29381548033652     -0.25076704183571
  C   2.19790466335218     -2.88045390512076     -0.06222213709712
  C   2.07449958878486     -4.30474937000348      0.01262074087888
  C   3.98206822225558      3.40331290577687     -0.56096544807672
  C   3.88046587226739      1.95938894661223     -0.77048794281800
  C   2.50133210164288      1.32097931713898     -0.69714940316202
  C   2.42403394534844     -0.10024814153784     -0.38089007418406
  C   4.30676447509945      7.63607048271311     -0.28732032259365
  C   4.19376851901585      6.21058050277285     -0.39343587342459
  C   2.92187037534335      5.58178872770625     -0.43296538085509
  C   2.80820392202329      4.17739745493171     -0.50054449205264
  C   4.55600997938521     10.35478125518616      0.30341326434334
  C   3.25756328405993      9.85542531252323      0.05020884573103
  C   3.13765312758479      8.46388134922801     -0.31083661687003
  C   5.33386076159514     -9.57984776028573     -0.11014366817011
  C   5.63124386843038     -5.36055745270461     -0.62200330516782
  C   5.52800487410738     -6.79207570820156     -0.34996049221049
  C   4.27539993143316     -7.35743608849508     -0.17703518947485
  C   4.13599789744835     -8.78674626539031     -0.07890015947981
  C   6.05189097624453     -1.08318826247864     -0.26518972259556
  C   5.93502932874639     -2.50881407322569     -0.34175366402676
  C   4.62987608187269     -3.11881905949231     -0.34478661255240
  C   4.48099676142682     -4.50441114260847     -0.35451901397516
  C   6.42018986163480      3.15170914156108     -0.37370291868951
  C   6.29131590334643      1.73446772091622     -0.31164123465636
  C   5.03326110141554      1.11526625229826     -0.47374241535618
  C   4.88700802367647     -0.26361908858663     -0.39848453031683
  C   6.76242253014976      7.37931949090094     -0.14232863575217
  C   6.63459888983817      6.01040123202802     -0.34042405053825
  C   5.35797837135283      5.40502869501332     -0.39586582224657
  C   5.23843649649831      3.98619516546849     -0.46100444631069
  C   7.01055589010173     10.14822895105360      0.44478735195696
  C   5.70380461788106      9.58401718857724      0.20237050574991
  C   5.59411893735751      8.19751176619949     -0.08962577910032
  C   8.17801641014846     -5.57292600988557     -0.31106215889991
  C   7.98033729970318     -6.97360679181677     -0.29984156937505
  C   6.71761656749644     -7.57419521590581     -0.31480306324696
  C   6.56624195964350     -9.00181005719597     -0.20830685010072
  C   8.47844401967788     -1.30254241347825      0.04075548787496
  C   8.35924597081055     -2.70933055794797     -0.10682189588657
  C   7.09580582750163     -3.28272260789411     -0.33581974505432
  C   7.01846074139334     -4.71473805957126     -0.61113366785420
  C   8.82979699810653      2.92789348702405     -0.06087378732746
  C   8.69212501813318      1.55144912432506      0.09610027870521
  C   7.43806522123227      0.93600877294868     -0.08839783292253
  C   7.31030769550476     -0.48602003288365     -0.08878717110203
  C   9.20357922397080      7.20273393259291      0.14213172786516
  C   9.19670232607886      5.80839882220188     -0.27213601188312
  C   7.81641868439866      5.16770857181674     -0.52092850016889
  C   7.68565350203527      3.72181090449002     -0.31551784321505
  C   8.12828186119737      9.38260502357625      0.41494548252561
  C   8.07077010334282      7.96834775160111      0.11390807738590
  C   10.88290634862967     -1.52601352554050      0.32307675728382
  C   10.76849286006213     -2.91933336074853      0.18162301695394
  C   9.52614700982890     -3.53589469227171     -0.01079937673569
  C   9.39302329076040     -4.95836783176073     -0.07695688388691
  C   11.28589116692997      2.68108590755936      0.29403138400720
  C   11.17369689626958      1.33579789555183      0.42640181180602
  C   9.81410270727278      0.72523457436964      0.66264685992312
  C   9.72907350171423     -0.73152977077192      0.28370963094938
  C   10.29380136576659      4.90286777031399      0.08406510762453
  C   10.14248858124712      3.55156853738795      0.10719457717480
  C   12.31600237730565      0.45872588576470      0.50783679117403
  C   12.17829482037477     -0.89041138136666      0.48215973937016
  H   -9.71359572425677     -1.63845904080290     -0.07247620569968
  H   -9.14088051720137      5.05837946906258     -0.26030090911851
  H   -10.54871147602109      3.04554907589833     -0.28632322293998
  H   -10.76829946251144      0.59657257922192     -0.22405138347210
  H   -7.62739312205302     -6.09717487653690      0.01809223048330
  H   -8.67389037297596     -3.86129689979250      0.00331185258604
  H   -6.30371930449791      9.11638370514749     -0.06279676439042
  H   -7.72671585677568      7.10062723607376     -0.20457647613773
  H   -4.60082609560189     -9.75934641538589     -0.03338891956926
  H   -6.60307957803235     -8.33024607671904     -0.02269004175563
  H   -2.72032250359173     12.13646486947482      0.37672346298478
  H   -4.92468753483062     11.10509547524496      0.18291319982257
  H   -2.13143089583522     -9.97849122202863      0.04226696252855
  H   -0.49948388815058     11.99885947307881      0.78469865630562
  H   0.32299950735602    -10.19905280979954      0.06880262567217
  H   2.35280528263114     11.50392148278769      1.13611368439952
  H   2.77261908099958    -10.42808164117600      0.04495819150770
  H   4.65544859219367     11.39499216903440      0.59079188548785
  H   5.23859652791188    -10.65737720036460     -0.04295651532146
  H   7.07605192239235     11.20765065790020      0.66333105517293
  H   8.85148389140535     -7.61213141447167     -0.20359190035297
  H   7.46018334651512     -9.61466550349513     -0.20446699691925
  H   10.13957426327841      7.64015433971039      0.47007720017894
  H   9.10015598020127      9.82088655347138      0.60857747183698
  H   11.66179293454309     -3.53093705088994      0.23321343894454
  H   10.27525695921278     -5.56683975786153      0.08682443930495
  H   12.26992809392317      3.13783822573885      0.27436674159393
  H   11.26815355984642      5.33664554648945      0.28125203809789
  H   13.30253533105409      0.90779227326112      0.54980100884397
  H   13.05293919996745     -1.52883183298244      0.53085661363525
  O   9.61693867043357      0.67476071965823      2.11435670885158
  H   9.71185552119115      1.57336781286697      2.49615576614583
  O   -0.92394138220243     -4.38237018056422      1.89846640881125
  O   -4.32689567910344      0.29497968716969      1.88517024090535
  O   0.83236631387579      9.77213369441066     -1.25681165405117
  O   6.34448019362236     -5.04179944370564     -1.89798833052127
  O   3.14856810736686      1.59788063643294     -2.02131447543325
  O   8.67362178149898      5.56444240112622     -1.67051684556122
