190
Coordinates from ORCA-job input-ccc-3oh-4epoxy-geom
  C   -8.62156236715663      0.19707488753511     -0.30246593028761
  C   -8.72178026155895     -1.19698015732229     -0.27222574137546
  C   -8.21392707382553      4.39525125223523     -0.60060928564739
  C   -8.36121230053690      3.01869904219179     -0.50908438129506
  C   -9.62310180822983      2.37670170671951     -0.73284186048352
  C   -9.74651626852713      1.02002253206773     -0.64624462332432
  C   -6.57768205781150     -4.25398963709943     -0.02142089883739
  C   -6.67259347741094     -5.68897040952822     -0.11793964969873
  C   -6.26304670190978      0.00798200720079      0.55513292191304
  C   -6.33012562107348     -1.44382522462746      0.18446535967114
  C   -7.58871508426675     -2.02848712074272     -0.07518681329286
  C   -7.68534471884141     -3.43922821393082     -0.18148689852651
  C   -5.81163263930363      4.20597336706053     -0.09497654838541
  C   -5.94486104819709      2.81951118384983      0.01026248305407
  C   -7.22824838022067      2.19982171647602     -0.16675125821909
  C   -7.38053559373191      0.82966931067663     -0.03363386352219
  C   -5.47207982507711      8.43704826432679     -0.38030031376561
  C   -5.57829563227783      7.06290447817491     -0.25462877392397
  C   -6.81948694539316      6.40861323870382     -0.47870223808248
  C   -6.96409386361810      5.02648367451913     -0.38689572205801
  C   -4.53591198844657     -8.71409380030351     -0.01116819043108
  C   -4.16101457658422     -4.44884605716182      0.39635616938582
  C   -4.32827679574170     -5.89653591970319      0.52409676332359
  C   -5.60398879600672     -6.50219247609116      0.10307043852554
  C   -5.65172110363410     -7.93647808872774     -0.02501465158058
  C   -3.76780047509029     -0.20791975819381      0.40549998206368
  C   -3.88596065283673     -1.64259854412109      0.43036903297520
  C   -5.18378669529034     -2.23476107162913      0.27885247857508
  C   -5.29423785606557     -3.65343325036573      0.20931211729822
  C   -3.38013232051551      4.01993059100807      0.19888386911870
  C   -3.50561936199074      2.60373130105628      0.26091681470346
  C   -4.78640116131658      1.99958056043377      0.21709336731985
  C   -4.90465832539988      0.60636190610544      0.33094668651281
  C   -3.01027712438512      8.27075681760555      0.28589938846451
  C   -3.14506703757396      6.82146530961396      0.16011431852047
  C   -4.40608110394492      6.24186509167867      0.01988826458686
  C   -4.53611461924313      4.82746992974924      0.05017161897471
  C   -2.77308733174511     11.05402964250416     -0.40788610644210
  C   -4.01604085824985     10.52847005508307     -0.42888314396500
  C   -4.26535936331986      9.14609619688636      0.00488287704908
  C   -2.08255615949814     -8.88759458170719     -0.13705731173678
  C   -1.72827405141937     -4.70952182753334      0.59920839102805
  C   -1.77551058079635     -6.09761606748090      0.44122371980854
  C   -3.07980759196395     -6.76468367810410      0.54145795749234
  C   -3.20560676747343     -8.17239110396176      0.12208731903144
  C   -1.31714418384084     -0.43161895626097      0.50437815728013
  C   -1.44132814520971     -1.84360365944510      0.57409840046475
  C   -2.74804574449302     -2.44957486166566      0.52993256452933
  C   -2.88044963242390     -3.88457554190252      0.52912802738157
  C   -0.93441357325444      3.80492833730140      0.34773979029329
  C   -1.05955249275724      2.39503439898962      0.39829125360816
  C   -2.34968499646734      1.79409015862610      0.36783789475892
  C   -2.47709461923296      0.38568825360730      0.42457540615093
  C   -0.56237138909313      8.05731348365359      0.14288448281434
  C   -0.68850438331821      6.63358337473248      0.24862407942919
  C   -1.97697184943498      6.02959820722397      0.22250034976195
  C   -2.09879138858590      4.61699293171422      0.25940555178191
  C   -0.31624417824137     10.84301902936447     -0.18260070169911
  C   -1.58224547525180     10.26575141763124     -0.13292498672393
  C   -1.69899244921668      8.87292531599063      0.08348356971895
  C   0.32204310969202     -9.01066918507443     -0.53888047008190
  C   0.82101411547484     -4.94183248115373      0.69504734685286
  C   0.65733048357261     -6.30822164743107      0.19803889600431
  C   -0.63053050165459     -6.87559816285724      0.17672659643513
  C   -0.76449578727814     -8.29008499297977     -0.15206742057272
  C   1.12944025211344     -0.64700747961103      0.55495570860147
  C   0.99703390896846     -2.06075440116214      0.61809095177145
  C   -0.28439464815398     -2.63120372575235      0.67220403168469
  C   -0.43104091590488     -4.07726760122949      0.84217984568197
  C   1.50454229744644      3.59168352847681      0.41416460802064
  C   1.38023340337196      2.17988073743297      0.45543451965271
  C   0.09697323253080      1.58197001432398      0.46295787737292
  C   -0.03079231072519      0.16466550468183      0.51557248035374
  C   1.88519845325325      7.84447814893238      0.23866816480063
  C   1.75705607809859      6.41912022880025      0.33381960120154
  C   0.47272327747367      5.82770233448004      0.32445114049572
  C   0.34765959012445      4.40486156279866      0.37152585006632
  C   2.14708481897038     10.63342870433832     -0.05596098303719
  C   0.85486597148093     10.06057514424831     -0.03623790914342
  C   0.72494633640871      8.64863512700127      0.10572317278949
  C   2.83640444402373     -9.23196590250838     -0.64711761897241
  C   3.23413513374771     -5.06438324454616      0.23425395433378
  C   3.08125289919257     -6.46533372929718     -0.05254940266751
  C   1.78991535125753     -7.02071417593161     -0.17096431390048
  C   1.63638356501232     -8.35670248652539     -0.84542417960177
  C   3.58625718928583     -0.85551780522833      0.47634894433322
  C   3.46370343173494     -2.26674482074849      0.47263521209182
  C   2.18176514479761     -2.88100016151207      0.54494421634305
  C   2.09499067289935     -4.26907637415764      0.46890510484740
  C   3.95769000852575      3.37931527734981      0.39627709480828
  C   3.83345245268985      1.96384912413382      0.42003335345025
  C   2.54448533001245      1.36320344605245      0.46800732830204
  C   2.41888174622591     -0.04286205439066      0.50702101399488
  C   4.31169934305100      7.62853683039967      0.56949198121001
  C   4.20831190158565      6.17951187168352      0.41792530569604
  C   2.92020827408638      5.60048133473317      0.38439125372473
  C   2.79507874364648      4.18929163631980      0.40116444972854
  C   4.61141739498967     10.42260347700739     -0.02490585917884
  C   3.29103966806884      9.84737407060822      0.09927786541679
  C   3.14292120562382      8.45162375900126      0.28469449307390
  C   5.27832001448443     -9.50458031775392     -0.51723530328746
  C   5.67230616493870     -5.29879915563751      0.08417509693245
  C   5.51391631357740     -6.69981020687563     -0.15067942777796
  C   4.23076350074029     -7.26840614062736     -0.22855747211547
  C   4.07595768679161     -8.69694529861646     -0.46086117394572
  C   6.03312411226521     -1.07976238602791      0.37481228165561
  C   5.90001481324893     -2.46311692288311      0.41824970410628
  C   4.63162942981524     -3.07115551869047      0.40199873847299
  C   4.50929317340334     -4.48119003406507      0.25910447104588
  C   6.40084078825808      3.15996167898290      0.25455136180898
  C   6.27911212676016      1.75630785825652      0.28706777825347
  C   4.99193799779740      1.15395777957759      0.37943262485168
  C   4.86747458804995     -0.25826834545565      0.40763184891149
  C   6.82294862290492      7.39075761929860      0.14967364576955
  C   6.67042905299758      6.00735756751311      0.21210786524382
  C   5.36177103668735      5.39921442320354      0.35076672087270
  C   5.24403100558645      3.97864280155661      0.33864419081275
  C   7.06323296827102     10.22242757492677     -0.25030090218950
  C   5.75538823553122      9.68698922730161      0.03399104423895
  C   5.69363924468541      8.26924248948302      0.43591300433375
  C   8.09792039231176     -5.52868145293084     -0.07945634281136
  C   7.93598686387953     -6.93146186568887     -0.27006496159944
  C   6.68473952144654     -7.51749120306440     -0.29077628248773
  C   6.51124817531249     -8.94487594744256     -0.45371065952243
  C   8.48858384831350     -1.28858285345842      0.11517320120555
  C   8.38402720946909     -2.68445162371967      0.15400466600327
  C   7.11372914909968     -3.32466162741958      0.62834774808927
  C   6.94128467911279     -4.73347441742626      0.13747508255956
  C   8.83872737572173      2.94740946499910     -0.02487608951727
  C   8.72504570923610      1.53709480719617      0.02307750305239
  C   7.44239727226726      0.92841797349357      0.19910237036385
  C   7.32726826906048     -0.46761373192327      0.25468225993266
  C   9.19396037194579      7.17401175717449     -0.28969747222222
  C   9.09639010664346      5.76589753528145     -0.17040996549575
  C   7.81264158415985      5.17135942981998      0.05405388942608
  C   7.69218369491645      3.76518873599504      0.10533763704896
  C   8.16003778516547      9.42337138415089     -0.31307015119802
  C   8.07881612357183      7.98312126256253     -0.15436687759818
  C   10.91143599476830     -1.50524678403517     -0.27974022098703
  C   10.77318313548855     -2.88661110700773     -0.28136951876290
  C   9.51267782404850     -3.49886804075707     -0.07588957164986
  C   9.36272967248026     -4.91551331594097     -0.13152607454588
  C   11.26509936932191      2.71335903242645     -0.35866791639201
  C   11.16012841095990      1.33618791762280     -0.32207742933694
  C   9.87409507979608      0.72524269394857     -0.12824417048138
  C   9.75719822354134     -0.68079576079664     -0.09921504333883
  C   10.22690036629433      4.94186631463968     -0.29371771907240
  C   10.12591697463524      3.54935580146450     -0.22123166936746
  C   12.31013167153185      0.48366061454461     -0.48397538116663
  C   12.19124149667655     -0.87035676794263     -0.46881226044771
  H   -9.68115490221946     -1.66148674301449     -0.46824401672904
  H   -9.07428900280497      5.00836673407669     -0.84220888764979
  H   -10.47913719528387      2.99308416472916     -0.98128071133376
  H   -10.69969189004166      0.54003490632076     -0.83527159905177
  H   -7.63014904208868     -6.12006021828499     -0.38746368598600
  H   -8.65235261308033     -3.88408392779443     -0.38631013642920
  H   -6.31367669404187      9.00645353126479     -0.75747252079188
  H   -7.68634554905405      7.01371313316943     -0.71701332311115
  H   -4.62731324786097     -9.78399500104107     -0.16196236824122
  H   -6.62156427931590     -8.39404783573281     -0.18540350834722
  H   -2.62309713939048     12.09378414766409     -0.67683926723203
  H   -4.86309947186583     11.12589631180574     -0.74662722472148
  H   -2.16374836133043     -9.93104555823821     -0.41923713963017
  H   -0.22054784669180     11.91010306299066     -0.34474699555063
  H   0.22101099635409    -10.05844198101142     -0.79771803654952
  H   2.24884920429469     11.70261300616447     -0.20002222440070
  H   2.72417495394431    -10.29381408014798     -0.83372190869642
  H   4.67400154624727     11.48178286501257     -0.24908661349384
  H   5.16457258529883    -10.57492997568029     -0.64406047890332
  H   7.15180866255564     11.28863214028691     -0.42561049764530
  H   8.81882074134975     -7.54652967897456     -0.40228325191315
  H   7.39981407631111     -9.56115632212482     -0.52745121229129
  H   10.16095253548457      7.61908271531331     -0.49205490103011
  H   9.13324710800491      9.85142786567350     -0.52265739818311
  H   11.64300629460854     -3.51200988662046     -0.44619143886563
  H   10.24267934096092     -5.52844413894138     -0.28890662504801
  H   12.23533994899987      3.17338120672849     -0.50507786853493
  H   11.19666283356527      5.39643781568988     -0.45868496050060
  H   13.27793590308201      0.95039969536646     -0.62550023978509
  H   13.06273224789577     -1.50127320576809     -0.59951219247535
  O   7.19684583309287     -3.39445559408513      2.09726706146889
  H   7.94669605797615     -3.96964918375711      2.36114499033347
  O   -6.54110034454993      0.09624586421957      1.99613831613843
  H   -5.92482870919872     -0.48201858105961      2.49478610306217
  O   1.54146053572660     -8.11868177901808     -2.30236744458815
  H   2.36689821320148     -7.69276033982127     -2.62075063659044
  O   0.25434448295060     -4.64858267864790      2.04478040934557
  O   5.08432931069959      8.05331685181105      1.78288307883451
  O   -3.79929420039661     -6.45134073660056      1.81018906024521
  O   -3.79752634876014      8.85814811344955      1.40589943714809
