191
Coordinates from ORCA-job input-ccc-4oh-3epoxy-geom
  C   -8.61053864649038      0.19938391901631      0.28837308105575
  C   -8.73436884551235     -1.18650572480578      0.20082996003482
  C   -8.26893961434851      4.41625960693988      0.20132049897129
  C   -8.39870581193805      3.06953786833353      0.31727629233017
  C   -9.67901900201676      2.40764239049341      0.31716462647735
  C   -9.78185452356519      1.05657079678372      0.33019452203135
  C   -6.57008273404381     -4.25230869222059      0.14940794725465
  C   -6.66121665638852     -5.66775613211130      0.19279403451158
  C   -6.18262966390627     -0.00729587261087      0.15138267809301
  C   -6.30337761199514     -1.42185993438181      0.10649315587773
  C   -7.59786185473304     -2.02538290903840      0.14814675353514
  C   -7.70726166503743     -3.42942712283682      0.14459912574657
  C   -5.79562682374699      4.23052230629015      0.04213973304698
  C   -5.89823627648648      2.84637488630172      0.15005863414061
  C   -7.18082065826992      2.23804051031268      0.64982995215401
  C   -7.32624036445020      0.77988116287938      0.30100270606881
  C   -5.49592693910613      8.45311129708249      0.10249899515726
  C   -5.58883509457599      7.09015953635407     -0.00678488864252
  C   -6.85753396277775      6.42573687524756      0.14840606794986
  C   -6.98080278120614      5.06444324313116      0.14346979366773
  C   -4.50440855780730     -8.69048101613021      0.32035908249751
  C   -4.11320785280254     -4.46257864441940      0.18482719095302
  C   -4.24131707545125     -5.84931555123516      0.31331170265545
  C   -5.51996593655646     -6.45707702568450      0.27928070246567
  C   -5.61251634928493     -7.90732928870533      0.31980836466995
  C   -3.74587772725389     -0.21754718843806     -0.09455664158266
  C   -3.86489971069291     -1.63226873133567     -0.01867098943758
  C   -5.15144888831263     -2.23444426545997      0.06518653973788
  C   -5.27104069263430     -3.64578409226365      0.12103059200887
  C   -3.37558100347691      4.03217113554040     -0.26008872181118
  C   -3.49645217614036      2.61672468006858     -0.22190645585897
  C   -4.76574754659813      2.02427989137908     -0.01307775129021
  C   -4.88781104278886      0.59871765003932      0.02907838684405
  C   -3.00834245440582      8.28221009074267     -0.49776927768883
  C   -3.15130129416842      6.83838192760181     -0.36140866262948
  C   -4.40701382495474      6.26461151726255     -0.21779588856566
  C   -4.53399283831494      4.84412958134171     -0.16005718673304
  C   -2.78196406253519     11.06055687529836      0.22484637849710
  C   -4.02741129822324     10.54023208004732      0.22283470225702
  C   -4.27466744558728      9.16652140104209     -0.23529917031246
  C   -2.05850442053201     -8.88799693883115      0.21175405552285
  C   -1.65487982428074     -4.67011658339636      0.07853441215081
  C   -1.74617852949502     -6.06365275129381      0.23443395969931
  C   -3.04446739696116     -6.66558335483496      0.70205299602904
  C   -3.17566707782321     -8.12839844360206      0.34284793560545
  C   -1.33781698067550     -0.45668017337033     -0.38725483398175
  C   -1.42846695960147     -1.85132808525800     -0.20631795803741
  C   -2.70903414588397     -2.45815597034526     -0.03235299553832
  C   -2.81933926362267     -3.85312783858154      0.09960105996743
  C   -0.94136313463841      3.82369577542364     -0.43724884629151
  C   -1.08771899347340      2.42352170838096     -0.50323526242547
  C   -2.33275024159779      1.80497115043495     -0.36647318539430
  C   -2.45433673410694      0.37269564334929     -0.29945230511946
  C   -0.55147167346697      8.08075436631977     -0.38232290079336
  C   -0.69285060194860      6.64405446585142     -0.45843502212694
  C   -1.97095045110269      6.04781861394227     -0.39577136639613
  C   -2.09880701927785      4.63549580786375     -0.36388566592069
  C   -0.32204757219417     10.84718855301955      0.01223044928111
  C   -1.59034665078325     10.27587766165016     -0.05630004276942
  C   -1.69754692356857      8.88608174395445     -0.28737345461866
  C   0.39599225468070     -9.09149691989341      0.14198050231521
  C   0.78693724938952     -4.88431770944546     -0.16120150341684
  C   0.66657114034882     -6.29323825858379     -0.06690578168114
  C   -0.61686877944596     -6.87400483477460      0.11579760585263
  C   -0.73703193433216     -8.31176143964929      0.17260374360166
  C   1.16862729544606     -0.67614717056852     -0.48244222919590
  C   1.02879450575858     -2.06484011593280     -0.34248265583775
  C   -0.26231914590540     -2.66288738506590     -0.23771580635230
  C   -0.37553451912566     -4.06851822395508     -0.11571344787016
  C   1.51761735774668      3.60355742841361     -0.44299395261947
  C   1.41731019943190      2.20746757857911     -0.53723805453955
  C   0.10095604196962      1.62478210124548     -0.78015140645342
  C   -0.03652913230873      0.10842035139639     -0.73216875737039
  C   1.91087108869020      7.87836682734939     -0.81491488055363
  C   1.76262298455880      6.42709871220739     -0.47813068393838
  C   0.47509513885083      5.83546657464407     -0.48049549832471
  C   0.34611636754713      4.42271658259138     -0.46405875623330
  C   2.13225415026782     10.66069862920073     -0.09300814291578
  C   0.84794193240718     10.07300218999962     -0.17624859036689
  C   0.71316962705870      8.67818084918222     -0.39347685590313
  C   2.86014571366867     -9.31445582993738      0.08610556384324
  C   3.23955738266112     -5.09721181993102     -0.35566131415035
  C   3.11321930202482     -6.53428149730867     -0.27782597256985
  C   1.82683680273313     -7.11032838645355     -0.11074592359894
  C   1.70200628100340     -8.52280725811130      0.03733786405935
  C   3.58929583440857     -0.85562980236463     -0.33694232944184
  C   3.46749401302916     -2.26867437208717     -0.33600900577272
  C   2.19200848174835     -2.87862156331314     -0.31964756478596
  C   2.07155724592046     -4.28934120197952     -0.28027796303929
  C   3.94798408749053      3.38806787025945     -0.23732559289357
  C   3.82473244095525      1.97551379284288     -0.28065455215787
  C   2.54472243364432      1.38262197827388     -0.44213035565537
  C   2.41794681089656     -0.05281347198978     -0.43934770507554
  C   4.31205778548868      7.63860002688882     -0.14021250869577
  C   4.19766239791024      6.21577363283906     -0.19990549222879
  C   2.91052200504269      5.62909337506431     -0.33793949789653
  C   2.79462101438255      4.20670240345257     -0.33018007353856
  C   4.56721665032283     10.42626760201182      0.12498280941550
  C   3.28922664087770      9.85716157259127     -0.10034870276608
  C   3.18585132976172      8.45153805299205     -0.28224506346914
  C   5.34018389608212     -9.54354671262663      0.04989709806062
  C   5.69194254836062     -5.28369790219803     -0.64160217974155
  C   5.56108999524075     -6.80427908916430     -0.57299750472969
  C   4.24115040235608     -7.36167268324409     -0.28375199328669
  C   4.13119177472817     -8.74764319817844     -0.04716620475544
  C   6.02772405785192     -1.07860718445606     -0.18707558260219
  C   5.91421987365308     -2.47973810780537     -0.27603928602723
  C   4.62981560018540     -3.08317891906916     -0.34648674170836
  C   4.49103289772153     -4.48091559492235     -0.42981062831618
  C   6.38302754004211      3.17457186506068      0.08314207765221
  C   6.25386513094886      1.74929588342346      0.02199635164196
  C   4.99269961265224      1.15934207878768     -0.16284271341301
  C   4.86686337294186     -0.25996350543508     -0.23417827655233
  C   6.74380337298634      7.40375983682479      0.18460542968083
  C   6.62365741771918      5.99021253682679      0.12377690254306
  C   5.34262391863832      5.40166375032716     -0.05925847422253
  C   5.22854164092117      3.98716755006769     -0.08328748357994
  C   7.01805585434728     10.21113289748445      0.37761318329061
  C   5.71542120635778      9.64006744733288      0.19079364155564
  C   5.59472956394463      8.21924149657548      0.08341771217744
  C   8.13405974393165     -5.51611582723315     -0.25659232772283
  C   7.98024700252789     -6.95258504000318     -0.19168817627307
  C   6.76928489869751     -7.57946430943436     -0.23659857784841
  C   6.58236336528442     -8.99044922785677     -0.00989978360049
  C   8.47656134273698     -1.28460634031433      0.00343510641724
  C   8.36439085642782     -2.69613281653482     -0.09683867910558
  C   7.09236483633213     -3.30014220829134     -0.24263504809174
  C   6.99387051485138     -4.68926703356579     -0.36350623706493
  C   8.78552686194913      2.93489196068606      0.76606509932402
  C   8.69529583286145      1.50571747863446      0.31485569217385
  C   7.42623602782258      0.92877931293884      0.10735207477062
  C   7.31181343548872     -0.47441596659195     -0.03582415453284
  C   9.16324042325446      7.16368328893341      0.44110578643450
  C   9.06153113141084      5.77514804774100      0.40801709235363
  C   7.76338413470284      5.16748103484137      0.28173632070765
  C   7.63338142591404      3.77325724641412      0.29900930824293
  C   8.13018066458791      9.41821815209296      0.44919454057405
  C   8.02867156474342      7.99375399100626      0.36124632191389
  C   10.92401963324899     -1.50648437522565      0.15058563996745
  C   10.80252693683926     -2.87912856242481      0.05938674380456
  C   9.52983526654348     -3.51212733050214     -0.05716429350006
  C   9.39223979096250     -4.91091677642837     -0.11926098295511
  C   11.26916637563010      2.71576425049897      0.45515525097027
  C   11.15765595764559      1.34528987815320      0.39356171939686
  C   9.84795575239606      0.72121953171958      0.28866023426648
  C   9.74850948810605     -0.68133958174923      0.13993038343060
  C   10.22036998763698      4.93492016221966      0.44138300811385
  C   10.13540339232717      3.57016864913380      0.49829477485639
  C   12.31683818261629      0.49234066506474      0.37246195143484
  C   12.21065115350081     -0.85957204650997      0.26640642044286
  H   -9.72136638159160     -1.63431757045073      0.19324250091311
  H   -9.15429841623348      5.03802164801769      0.11808093706018
  H   -10.57050190004310      3.02437986249288      0.27731302785079
  H   -10.75616076306298      0.58186987039223      0.32703630135566
  H   -7.63905176272760     -6.13466361493921      0.17614287706727
  H   -8.69116795986553     -3.88337342439513      0.16241758805408
  H   -6.35621817787380      9.02690933791012      0.42777584649388
  H   -7.74445535707175      7.04163152599629      0.24320304787820
  H   -4.59990703559515     -9.77058383440671      0.27583651913760
  H   -6.60014321391329     -8.35370577039458      0.30232942021538
  H   -2.63200601155216     12.09493194682799      0.51388664114376
  H   -4.87620871603062     11.13422390188456      0.54203364902110
  H   -2.14792493623505     -9.96379609732693      0.09818152760816
  H   -0.22493017405970     11.90656356644259      0.22074793215863
  H   0.30430650456593    -10.17045234550749      0.19591570270259
  H   2.22237719662094     11.73223617995177      0.03808002370639
  H   2.76579483162838    -10.38443873609899      0.23099456822652
  H   4.64973912832246     11.50026641826792      0.24962150358572
  H   5.22927879290210    -10.60944567048913      0.21171019030457
  H   7.10514133170568     11.28845911552384      0.45697618752899
  H   8.87488784696463     -7.54193689690487     -0.02291096719852
  H   7.46303619224439     -9.60901733396757      0.12099683056714
  H   10.14136527247836      7.62046281122174      0.53878406408791
  H   9.11063294250829      9.85991275748748      0.58332371627313
  H   11.69259997239157     -3.49724127190758      0.07879030650481
  H   10.27670764829523     -5.53338144593485     -0.04875538106924
  H   12.25492251641973      3.16842544805858      0.44357696063279
  H   11.19607231775091      5.40696840530754      0.39166541901988
  H   13.29232614998714      0.95892826916619      0.44898123755733
  H   13.09809865747787     -1.48161485715031      0.26412821717920
  O   8.74709848816209      2.92017824104800      2.23618795829964
  H   7.91269415426919      2.50571679157934      2.54305953723695
  O   -7.09191844366444      2.18686276959829      2.11281053742822
  H   -7.05005135143142      3.09803917165815      2.47373043963944
  O   -2.93231994827207     -6.59215623882992      2.16478250384687
  H   -3.75974691571648     -6.91463183760314      2.58148566922336
  O   1.90277710186587      8.01716237654996     -2.27759442732521
  H   2.71664238070802      7.62645611436144     -2.66117001867765
  O   -3.77414443147102      8.88331005406285     -1.61863948480541
  O   -0.00866319169382      0.82849401237663     -2.04466310546860
  O   5.64555342879208     -6.10945756211106     -1.89284560429320
