198
Coordinates from ORCA-job input-ccc-9oh-geom-pcJ0
  C   -8.65293339466130      0.21438371663814      0.12604640282212
  C   -8.76193233059107     -1.17108030851802      0.14119908388338
  C   -8.24489972693212      4.45712998370648     -0.02970622050946
  C   -8.38972460619850      3.06054787602349      0.03237048328097
  C   -9.67377199838507      2.42322368363706     -0.09685354843343
  C   -9.79469513259712      1.06170196668868     -0.04301476535715
  C   -6.58416729095445     -4.23512808857500      0.28270830612348
  C   -6.68264761946137     -5.62375006119539      0.27021800999016
  C   -6.20031046321248      0.04452343507686      0.34653686858177
  C   -6.32640546600197     -1.39982022603889      0.71820972638912
  C   -7.65103790698463     -2.02050951540103      0.31700266757795
  C   -7.73496828142441     -3.39402935553020      0.24865396682671
  C   -5.81223524446711      4.29601806458344      0.14987006825555
  C   -5.95193871346843      2.87509864800017      0.60925649450247
  C   -7.25238929454453      2.24010147296431      0.21315959501403
  C   -7.35508117431474      0.84139603806394      0.24332368339575
  C   -5.41824080364336      8.52420681752446     -0.33222463927012
  C   -5.58039652545756      7.09113267323923     -0.24035665780017
  C   -6.82406937304367      6.49280032318362     -0.18261982555709
  C   -6.97039258935884      5.08243793631295     -0.01309559584241
  C   -4.52414249496659     -8.66500836517138      0.19421047517168
  C   -4.12959556151215     -4.44201272694535      0.11394161875755
  C   -4.25018503291580     -5.86117957740555      0.12629865978906
  C   -5.54224178337577     -6.45194967318930      0.21887678755064
  C   -5.64308681020749     -7.87524724923740      0.24350734696618
  C   -3.75643877116722     -0.19477101366821      0.13499145081248
  C   -3.88787273504181     -1.63815581112972      0.11627219362205
  C   -5.14466971701262     -2.23356945947569      0.30260371108275
  C   -5.27783397084503     -3.62603515217819      0.24394146180940
  C   -3.37411612046570      4.05516928974414      0.11412973754610
  C   -3.50340826994544      2.62613547791819      0.18246157530618
  C   -4.75658476236532      2.02671447894728      0.28356119286100
  C   -4.90082028154029      0.62348874946025      0.26400827669683
  C   -2.99671458039075      8.25081588157544     -0.79455790831944
  C   -3.13109551008874      6.84125776311479     -0.29191722340146
  C   -4.39863280055489      6.27265907495355     -0.16995003480810
  C   -4.54015856846152      4.86833057769463      0.05192752155963
  C   -2.77826869950251     11.09786139610308     -0.52125208767550
  C   -4.01382998165116     10.53877457626839     -0.50763729704086
  C   -4.19961774775264      9.10929374713661     -0.47491676701401
  C   -2.06520800006355     -8.88413308724724      0.07077595676076
  C   -1.68221646279645     -4.66298267514384     -0.11362755187402
  C   -1.80363176453505     -6.07192416438764     -0.05096396875384
  C   -3.09608894958318     -6.66940551852690      0.05638039379732
  C   -3.21639598694224     -8.09160963271215      0.10483032907243
  C   -1.31483629924874     -0.39603972144235     -0.06929540593330
  C   -1.46273240048922     -1.81967621245715     -0.51325948414947
  C   -2.75437356392012     -2.44448938836565     -0.08002977389940
  C   -2.85395421552605     -3.84073476641238     -0.03304855548128
  C   -0.93201866755381      3.82975615643055      0.08694060827843
  C   -1.05485149897244      2.40797885404446      0.11754435541436
  C   -2.34417516636199      1.81513125660139      0.11979822985531
  C   -2.47563746820305      0.39907737804699      0.06028589345520
  C   -0.55862352858445      8.08321220380811     -0.23481609149019
  C   -0.68763668516000      6.65359693587188     -0.13257728496160
  C   -1.97423576762081      6.05656635688065     -0.13449095940554
  C   -2.10297677617044      4.64189919078578      0.03777076142794
  C   -0.31450589816172     10.88434833998200     -0.32655530681430
  C   -1.56998275874840     10.29537047590825     -0.43993052624369
  C   -1.67981819904700      8.88661324151724     -0.43208612468180
  C   0.38444345506436     -9.11477126946958     -0.03999559967274
  C   0.77324711109432     -4.88506350954670     -0.16265098764039
  C   0.64867678869558     -6.30561935789034     -0.15655876634782
  C   -0.64667020395298     -6.89128035805757     -0.08118347339130
  C   -0.77554170260825     -8.31518119129331     -0.01510462986982
  C   1.10565304087076     -0.65612249703504      0.03468851202537
  C   0.99750055915128     -2.05452342972285     -0.10318486508429
  C   -0.25723030005732     -2.66876357701094     -0.21885565989911
  C   -0.39472571270462     -4.06420413521994     -0.17840165589444
  C   1.50276089373671      3.61034546695319      0.12963081416385
  C   1.38295106907398      2.19172213478142      0.16917254527732
  C   0.09258558660789      1.59429755194767      0.13579967866442
  C   -0.04578263172439      0.17036170470588      0.03636636924583
  C   1.88148125737847      7.87514185512411      0.06433415176412
  C   1.74789168430890      6.44400978590717      0.10584702922121
  C   0.46842044985205      5.85265559746956      0.01974659248154
  C   0.34115077563051      4.42458174200012      0.07897196183945
  C   2.14575536377554     10.67042939534819     -0.13325450668779
  C   0.85508947381222     10.09689188697923     -0.19198075641736
  C   0.72332210338620      8.67984570969139     -0.11915063101824
  C   2.81825746984097     -9.35169019948496     -0.23665206523203
  C   3.21303858066270     -5.10840316701454     -0.19609003162591
  C   3.09072342950111     -6.52186117554674     -0.25919164761552
  C   1.80110003719189     -7.11740869175853     -0.21218318180586
  C   1.67439437452473     -8.55593943148740     -0.16505885090692
  C   3.60133805028937     -0.86171377718082      0.00674513308224
  C   3.45570409985990     -2.27447485723020     -0.11087062752340
  C   2.18423358709827     -2.87027326369565     -0.10664868909849
  C   2.05174606265923     -4.28837781167097     -0.15761130364861
  C   3.94583644891235      3.39452428327201      0.18076507955006
  C   3.80817018753071      1.97242907538581      0.15804830341291
  C   2.54039590918796      1.39925446720641      0.21185850525084
  C   2.41466329240627     -0.07350283959194      0.48101180015769
  C   4.30983294381070      7.65617236490697      0.62984552559070
  C   4.18520636954676      6.19940508350013      0.29690701317535
  C   2.91033705770565      5.62691763771624      0.19299152832604
  C   2.78383626471622      4.20556831174216      0.16123836623935
  C   4.60342455996864     10.43789000274445      0.02337583365164
  C   3.28573063578064      9.87794506921851      0.03873272426106
  C   3.13505062635160      8.47215839308419      0.17878536318322
  C   5.32177107069844     -9.57227896245303     -0.18156355078643
  C   5.65371029760938     -5.32039792359204     -0.20202546322019
  C   5.51784952429130     -6.74017105976772     -0.24262940595604
  C   4.25989190959464     -7.31260748109263     -0.33555486744507
  C   4.13457599106582     -8.78220122452006     -0.65832942010307
  C   6.00571955466288     -1.05128903020848     -0.58447274856418
  C   5.89138371995974     -2.51250541297389     -0.26628005336428
  C   4.62737051568118     -3.09396125897181     -0.20099694759228
  C   4.49515168259296     -4.51186594195070     -0.19612782224469
  C   6.39219677227599      3.15478902737538      0.21157172005556
  C   6.24994309974346      1.74425099640622      0.05721574185313
  C   4.97452986455029      1.15425173159882      0.04564678919894
  C   4.82680783611967     -0.25382118994149     -0.10171412515108
  C   6.76246576788516      7.41338740951548      0.25086493835657
  C   6.61843565642854      6.01061278016245      0.36483760669663
  C   5.34113192339793      5.40247857248053      0.31205667903598
  C   5.22479789620448      3.98219446558418      0.23873550853648
  C   7.06789919745686     10.20668326045838     -0.07123341293332
  C   5.74817309134343      9.64503375137507      0.07177234204325
  C   5.64134185150517      8.24154191993072      0.24743270382721
  C   8.10642899121187     -5.53927722413397     -0.14230999953116
  C   7.94201201441412     -6.96656776370240     -0.10231778151445
  C   6.70709064415858     -7.55800103371144     -0.15232732954042
  C   6.53015353223327     -8.99564361983266     -0.03817572148745
  C   8.46550213261509     -1.28398000433483     -0.13590670686783
  C   8.34031735858740     -2.70453891899576     -0.18612884913645
  C   7.05075885265555     -3.30939637329247     -0.22200576309079
  C   6.93167963563622     -4.72029821213572     -0.18237863079494
  C   8.82459901518581      2.93154145958441      0.24219628228202
  C   8.71090103088837      1.52212869427299      0.10799543654944
  C   7.42893248033733      0.92134729746364     -0.00886192660539
  C   7.32807234928683     -0.45882766828766     -0.18332067096334
  C   9.20532901651116      7.17663935731018      0.12091132881670
  C   9.12677958615734      5.77657782270078      0.28942982849204
  C   7.80640539849464      5.17280632485473      0.71956504613084
  C   7.66968745261556      3.72179588419667      0.33067315973859
  C   8.17973243214296      9.41383684046906     -0.04358662755562
  C   8.08387922932860      7.99263680520349      0.11457628484735
  C   10.91604004644245     -1.52261208712701      0.00260993154470
  C   10.77618807369444     -2.90560383108028     -0.05697355729171
  C   9.49939044801327     -3.52042592844054     -0.12944085201443
  C   9.35675852805129     -4.93428095193375     -0.12190358408196
  C   11.26083660204059      2.71545830890306      0.21088168582377
  C   11.16257189560755      1.31946222919675      0.15053149305659
  C   9.87093489048275      0.71043732656766      0.07817129565946
  C   9.74893788386541     -0.69356703539141     -0.01208310793768
  C   10.22985233535599      4.95706211231680      0.20935602654135
  C   10.12667977198917      3.53582970238745      0.24786633187723
  C   12.31755496211173      0.47395288430355      0.14529982449271
  C   12.20146706534747     -0.88736604110789      0.08070760018350
  H   -9.73535267932933     -1.62227922734237     -0.01999015952700
  H   -9.12844132447438      5.07325166573205     -0.15077916360928
  H   -10.54927617031006      3.04725989566189     -0.23448081433521
  H   -10.76962086828341      0.59670828408335     -0.13453018034692
  H   -7.66316116442334     -6.08525408307149      0.29869052761131
  H   -8.70676433705219     -3.85919573644563      0.11896458960866
  H   -6.30612643607096      9.14279615036061     -0.24904022133244
  H   -7.71676191762352      7.10402218842921     -0.25699467072154
  H   -4.61439633153753     -9.74462754439770      0.22322503078977
  H   -6.62717398063298     -8.32476512016240      0.30853545398332
  H   -2.66728470393950     12.17600571005251     -0.54205769753881
  H   -4.89787938122952     11.16760756901283     -0.49233352644024
  H   -2.16225872198318     -9.96265645859705      0.11369652884497
  H   -0.22451450766358     11.96425624007649     -0.34492213523599
  H   0.28205184938653    -10.19238616984306      0.01156593655939
  H   2.25203420969353     11.74477393193963     -0.22975078266352
  H   2.72311731055573    -10.42977301399689     -0.14964510988386
  H   4.70726412011902     11.51087804362549     -0.08920639479756
  H   5.20108235930074    -10.64381612642459     -0.05062160209209
  H   7.16096703940507     11.27890333359002     -0.19909359285458
  H   8.82960783019915     -7.58369942319301     -0.01887629205567
  H   7.40144009311210     -9.59394332181393      0.20690262147163
  H   10.18130705843301      7.62356568420333     -0.03761312853825
  H   9.16588625706583      9.85200221340787     -0.14725268283422
  H   11.66000251263250     -3.53250296689190     -0.03436545992388
  H   10.24862065838733     -5.54923005438779     -0.08453105620315
  H   12.24275841772322      3.17446920752459      0.22505004780486
  H   11.20997319881269      5.39835997579005      0.06030587577582
  H   13.29621559629233      0.93679956384599      0.19839514122083
  H   13.08627898739294     -1.51326190578829      0.08499897210050
  O   -5.93027419380145      2.89286096806262      2.08552853583331
  H   -6.68129406406674      3.42883103717059      2.41959744532093
  O   -6.39444681770730     -1.42390406846925      2.18793484564572
  H   -5.70134485525398     -0.84146547353714      2.56789247508535
  H   3.52186553294611      7.38090308180416      2.48123931256700
  O   4.35160506462728      7.74523021125717      2.10436270424265
  O   2.40197412543567     -0.13427443362347      1.95243918930545
  H   2.44041907470382     -1.06932478403279      2.24834610964998
  O   7.81520912510195      5.11497299265756      2.19211480251588
  H   7.59403522288285      5.99629771180235      2.56385349931677
  O   6.03990396751880     -0.92768038919236     -2.04755842040028
  H   5.18956186007556     -1.23916953153943     -2.42547482707040
  O   -1.46747519388614     -1.79454523623533     -1.98677918557569
  H   -2.24013728573793     -1.28162533698310     -2.30775994853865
  O   -2.91245247673542      8.18089483113700     -2.25812993025963
  H   -3.74745070221521      7.81528953502720     -2.62077082825454
  O   4.14136356782710     -8.78614888401866     -2.13793901900289
  H   4.39106531431404     -9.66971852846477     -2.48059134678686
