183
Coordinates from ORCA-job input-ccc-1epoxy-1oh-3-geom
  C   -8.66133890959149      0.20509871501171      0.08638461636749
  C   -8.76966079327258     -1.17458009232314      0.09584369247085
  C   -8.27602909239116      4.43150392505472      0.14127337631484
  C   -8.41046075216318      3.05462859452958      0.11029803644572
  C   -9.70163977504473      2.41446418451001      0.15396255383680
  C   -9.82076846421021      1.06029768531494      0.14187934878125
  C   -6.59401466268095     -4.23355737101011      0.07495043168856
  C   -6.68820666560763     -5.65129578944488      0.14100384872931
  C   -6.20891865635048      0.00201859836576     -0.03281329783773
  C   -6.33093469003994     -1.40900057739360     -0.01549341897064
  C   -7.62495620364438     -2.01246909285448      0.05530961593699
  C   -7.72838658546799     -3.41397781697151      0.09307543571650
  C   -5.83372179756627      4.23676937235158      0.02632644029216
  C   -5.96044888072604      2.82628501523624     -0.01056235113986
  C   -7.24150896014916      2.22423895634610      0.03939753080011
  C   -7.36525555833428      0.81869851698999      0.02778200176396
  C   -5.44142522118613      8.47660507699981      0.20806995694203
  C   -5.59808564782686      7.06365738104664      0.14013839595297
  C   -6.85841269123418      6.45440770275924      0.15949756456152
  C   -7.00223353959954      5.05731664988519      0.10787371847461
  C   -4.54282241673357     -8.67084362647152      0.26267912168366
  C   -4.13837162899221     -4.44761741399421     -0.01064424837408
  C   -4.25777204984322     -5.86063530344149      0.07551020380410
  C   -5.56427909207003     -6.45514413338515      0.14848906764665
  C   -5.65605354922886     -7.89151635250843      0.23491033583624
  C   -3.75796809629337     -0.21268495962064     -0.17360430691624
  C   -3.88370153175373     -1.62680905575517     -0.14259428110921
  C   -5.17412471541613     -2.22490088523536     -0.05567371956159
  C   -5.29547403111015     -3.63279709261023     -0.00243673893722
  C   -3.38697903108412      4.02214232874016     -0.09852638329807
  C   -3.51043772962767      2.60908829362584     -0.14959011583065
  C   -4.79696698834019      2.00946036586427     -0.09097357930699
  C   -4.92048301033151      0.60265093732540     -0.10243717744025
  C   -3.01242899327316      8.25661343328201      0.12093735494307
  C   -3.14369288125877      6.84564850643696      0.04256325184306
  C   -4.42553342623394      6.24500232912911      0.05532077832564
  C   -4.55293486372234      4.83784314041899     -0.00722628798036
  C   -2.79812080815187     11.07519673205132      0.28398923041776
  C   -4.03072462415322     10.50255866291787      0.27979596658776
  C   -4.19481179720855      9.07134573028814      0.20223935780556
  C   -2.08325414735365     -8.87654398978766      0.24897390674654
  C   -1.69184910622735     -4.66290939195199     -0.08807672240643
  C   -1.81749504003918     -6.07504456380212      0.02653435375284
  C   -3.10672406606630     -6.66671608432696      0.09875876312743
  C   -3.22211217572075     -8.09556031167554      0.20336378453511
  C   -1.31717946687397     -0.43311387876742     -0.36116438862726
  C   -1.44158408560909     -1.84243956416987     -0.29689617839204
  C   -2.72933221917656     -2.43877625690624     -0.18195840791526
  C   -2.85206180969793     -3.85092023880032     -0.09879108339619
  C   -0.94636484083002      3.80567843928438     -0.22997093313493
  C   -1.06933381539594      2.39684090201009     -0.31741017157759
  C   -2.35356426926046      1.79794188868889     -0.25105939062438
  C   -2.47792833926687      0.38260846748081     -0.26586649551844
  C   -0.57338951814332      8.04038685793145      0.04608090691861
  C   -0.70027767534310      6.62938036108251     -0.04545644635872
  C   -1.98130497782251      6.03207494893769     -0.04481132205851
  C   -2.10888676256103      4.61929198080816     -0.12607487621010
  C   -0.33926829657351     10.84615448161835      0.22648781987694
  C   -1.59809557092283     10.27762416926848      0.21102015949488
  C   -1.73734774152364      8.84961452358046      0.12417132572588
  C   0.37368350325614     -9.09268735093391      0.26500234664929
  C   0.75137597481779     -4.87995467748298     -0.13441431685445
  C   0.62530226281970     -6.29128690603135      0.00911875315084
  C   -0.65821660318674     -6.88341185456173      0.07405232662613
  C   -0.78215081089879     -8.30605837629732      0.19602304957286
  C   1.09084371325502     -0.67318864779427     -0.65487912566310
  C   0.99306688779660     -2.06202557553194     -0.48456531825458
  C   -0.28180358300317     -2.65748554055192     -0.32155761916424
  C   -0.40683928118113     -4.07030342854074     -0.18397487490353
  C   1.49196237439377      3.59751075274441     -0.35851142090311
  C   1.34736342035394      2.20703522615178     -0.52105516179117
  C   0.09609577402369      1.59262643339926     -0.47274555064562
  C   -0.03078460928116      0.15513699614683     -0.51592500651900
  C   1.87226701517556      7.82247556435620     -0.00365875863219
  C   1.74532305663913      6.40806255728725     -0.11268131052770
  C   0.46339094816651      5.81716843732481     -0.13300170022716
  C   0.33503903055483      4.40801296566928     -0.23755866557645
  C   2.12075973846157     10.62522539471881      0.19414965918275
  C   0.84195823835363     10.05466553589155      0.16127630025115
  C   0.71296715910226      8.63238386358470      0.06516670772674
  C   2.83191121746198     -9.30888346642105      0.31277979658464
  C   3.19514521780485     -5.09878515034942     -0.11338840504937
  C   3.06784825042467     -6.51098204094902      0.04091441968336
  C   1.78523204808440     -7.10179855485267      0.08691388592445
  C   1.65654362903716     -8.52110905289816      0.22197461756895
  C   3.63712792845887     -0.94081078614246     -1.09393699170367
  C   3.45005590731624     -2.33008286683141     -0.54887326166281
  C   2.17534500221559     -2.88652256191211     -0.43407582027198
  C   2.03825009785973     -4.28738401368777     -0.22052756305142
  C   3.95409072145886      3.36804020843206     -0.38892663802565
  C   3.85010540149128      1.98549865896247     -0.57089131042404
  C   2.53469876860109      1.41618072952292     -0.84262668307167
  C   2.38427357107171     -0.06873605588405     -0.98823627040696
  C   4.31922282477636      7.60200923807913     -0.00053682867771
  C   4.19791262790170      6.19262192665554     -0.11247647279946
  C   2.90715576889026      5.58937718186679     -0.19007312672108
  C   2.78355432834247      4.19461353935009     -0.32907425229819
  C   4.58115003518243     10.40650801430598      0.19940137047800
  C   3.28071456376126      9.83452226835791      0.14340299014670
  C   3.15686769736190      8.41533671876581      0.04119033470014
  C   5.29109588203972     -9.53081138193409      0.39055281151692
  C   5.63782086915319     -5.31399817861578     -0.01098693676983
  C   5.50747990489176     -6.72033734437359      0.12735548765827
  C   4.22845170458210     -7.31564060361558      0.14805610379015
  C   4.09332006495929     -8.73731345217864      0.28420551571496
  C   6.01464965449361     -1.06870695649129     -0.37495478266788
  C   5.89110244670072     -2.49447284495452     -0.31056176121440
  C   4.60073078854110     -3.10454749362490     -0.34470788884415
  C   4.47600761578943     -4.50635356391646     -0.14955101277530
  C   6.38999656187708      3.15446197876261     -0.20671491485169
  C   6.26964406157810      1.74596856629859     -0.29066461198540
  C   4.98651925337873      1.14452800568883     -0.49800881423016
  C   4.88827868995189     -0.26270351278057     -0.58551555125228
  C   6.75922124628424      7.38799876734704      0.07009168844780
  C   6.64159689803714      5.97844172188672     -0.02004300924223
  C   5.35470380905871      5.38088696872691     -0.12580167994073
  C   5.23656755694550      3.97028637278009     -0.24054535543584
  C   7.04065855409704     10.20035221085744      0.24782145929947
  C   5.72029737345341      9.62449450087692      0.17372689171304
  C   5.60581669517558      8.19566044611546      0.07749944338516
  C   8.08234575788577     -5.52314853751149      0.13403796655194
  C   7.93209341059838     -6.92890051789821      0.24860343188604
  C   6.68331689483899     -7.52967519042772      0.24869747699774
  C   6.52387059337813     -8.95593184600107      0.37490967488671
  C   8.45575147404334     -1.28938108178982     -0.07207881241862
  C   8.32679459390942     -2.69769827843183     -0.04131116705040
  C   7.03913191931602     -3.29753331960913     -0.12690676147135
  C   6.91491331342475     -4.71065336711995     -0.00873759524376
  C   8.83354862111526      2.94146595626949     -0.01375070148819
  C   8.71194733941112      1.53249076803370     -0.05439427982228
  C   7.42503673010264      0.93215520460357     -0.18867981087423
  C   7.29900849607367     -0.47401603318123     -0.20674198066371
  C   9.18758624978286      7.18032158089989      0.17715537739425
  C   9.09406595657313      5.76350556165942      0.10831891234569
  C   7.79858621450640      5.16209146658488      0.00115241193846
  C   7.67946281398275      3.75567123245633     -0.07333833282756
  C   8.15398710292532      9.42118724935478      0.24280824889821
  C   8.06419988115258      7.98415572132189      0.16172700949585
  C   10.90086065260696     -1.51764169874960      0.15077403051759
  C   10.76196660570240     -2.89449191130937      0.17822800630051
  C   9.48879002339128     -3.51528474368718      0.09967051029875
  C   9.34656411824960     -4.91196184513208      0.17012690863937
  C   11.26966077766496      2.70658577149626      0.17231913463163
  C   11.15914842136262      1.32790230486935      0.14966086532587
  C   9.86417760903254      0.71642564907356      0.04017221629095
  C   9.73718992333191     -0.68807230927203      0.03691232363028
  C   10.22922560917338      4.94375971904132      0.15092499594148
  C   10.12719097311119      3.54531672224563      0.10276875000060
  C   12.31456349131435      0.47142661902592      0.24012192538803
  C   12.19141027660426     -0.88237046172696      0.24248860757472
  H   -9.75070356551799     -1.63277078875391      0.14361646814107
  H   -9.16195587790359      5.05324134108755      0.19848276913285
  H   -10.58323203965372      3.04329242212518      0.20030975057054
  H   -10.79879704573138      0.59464008804665      0.17873470585784
  H   -7.67054501134243     -6.10584617194142      0.19649014196674
  H   -8.71027974748686     -3.86939256312236      0.14904961359654
  H   -6.32867412130151      9.09599974565542      0.27051205687948
  H   -7.74539046049907      7.07410858933180      0.22257554686553
  H   -4.62855759036909     -9.74909768640118      0.33216230145062
  H   -6.64189008299981     -8.33933672411574      0.28328688647282
  H   -2.69313834771210     12.15226816123757      0.34525873466362
  H   -4.92186381265808     11.11684810600792      0.33746018918029
  H   -2.17690578488196     -9.95315439896342      0.33180590631087
  H   -0.24029175904808     11.92334324464658      0.29469751548144
  H   0.27751107798976    -10.16793740085508      0.36121065953298
  H   2.21873294409512     11.70204480944020      0.26870159437605
  H   2.73454764931477    -10.38360529814381      0.41348652904918
  H   4.67427050157210     11.48382851601393      0.27289056405134
  H   5.18689559862116    -10.60530989368065      0.48732640690507
  H   7.12520020569004     11.27900375126074      0.31251934686967
  H   8.81991308269729     -7.54266382869830      0.34705783280731
  H   7.41584810805968     -9.56565107618664      0.46052074283491
  H   10.16889530304277      7.63460985774363      0.25049380779272
  H   9.13887912593658      9.86954567879787      0.30402617444919
  H   11.64273398057271     -3.51886738907095      0.27296075793285
  H   10.23103757602572     -5.52949828573337      0.27382648515020
  H   12.24901754114096      3.16326136560104      0.25538550319878
  H   11.20887780711683      5.39979007127880      0.23467967495378
  H   13.29147768781765      0.93506719308260      0.31336920885040
  H   13.06877115840355     -1.51440321481798      0.31672211509318
  O   2.35491061233542      0.77850555598488     -2.23112250979033
  O   3.85496698530150     -1.16372707799950     -2.51042583964942
  H   3.47634574501711     -0.36321060668612     -2.95492810201292
