184
Coordinates from ORCA-job input-ccc-2oh-1-geom
  C   -8.67724950687603      0.20130147308855     -0.01436487331105
  C   -8.78275602259802     -1.17598891749296     -0.00895819121311
  C   -8.29414267131438      4.43177455889805     -0.03833279760356
  C   -8.42832981877898      3.05697811288608     -0.03083498844145
  C   -9.72016771432142      2.41312656153481     -0.03562267529499
  C   -9.83806325697825      1.05901049888597     -0.02803961133611
  C   -6.59422306285324     -4.23833085606813      0.00999855479402
  C   -6.68970679017842     -5.65712363984475     -0.00210667208246
  C   -6.21945497445093      0.00084522212348      0.00788158507493
  C   -6.33731971624785     -1.41098594325021      0.01541487948162
  C   -7.63395254074828     -2.01865072888121      0.00366537296367
  C   -7.73487440934879     -3.41546729203214      0.00279978947100
  C   -5.84516766519208      4.23818805533362     -0.02378493599144
  C   -5.97332731594159      2.82770625625327     -0.01427914307929
  C   -7.25729118100430      2.22154597929295     -0.01739193756058
  C   -7.37929597092214      0.82070715687410     -0.00792509645421
  C   -5.44892133980035      8.47958152075377     -0.03086386649135
  C   -5.60501197639620      7.06779829320162     -0.03174204152234
  C   -6.87228981966260      6.45560553976853     -0.03829776023925
  C   -7.01655589482392      5.06292822514494     -0.03397289364979
  C   -4.54646174318393     -8.68499957234072     -0.02998412827963
  C   -4.13777769720358     -4.45397769509693      0.02816773650371
  C   -4.25852094530325     -5.86697171795780      0.00727312650435
  C   -5.56572184685103     -6.46263294172811     -0.00534538256272
  C   -5.65794294262214     -7.90254664729319     -0.02268317103097
  C   -3.77066550501425     -0.21558395968393      0.03746656659763
  C   -3.88916620192843     -1.62182819879869      0.05112451037863
  C   -5.17875825754774     -2.22518940297298      0.03209992544037
  C   -5.29886487439414     -3.63697720214497      0.02643134692858
  C   -3.39782268520441      4.01887117692152     -0.01435534381684
  C   -3.52474462365231      2.61451357926016     -0.00132568980232
  C   -4.81084977277884      2.01139323141197      0.00012968614908
  C   -4.93374092582594      0.60236767190765      0.01435887456535
  C   -3.01804750414564      8.25862876137392     -0.01405454147653
  C   -3.14841827810797      6.84853674144349     -0.01644826340397
  C   -4.43394212121918      6.24808193034553     -0.02418792951000
  C   -4.56359059055161      4.83842672426177     -0.02165900910785
  C   -2.80263533509686     11.08173338146335     -0.00760547281416
  C   -4.03554016918558     10.50805008480959     -0.01810557612955
  C   -4.19878463527635      9.07503674425055     -0.02134381613126
  C   -2.08403358968772     -8.89640647413453     -0.03064109202136
  C   -1.69494293015778     -4.67151762873782      0.03218550918859
  C   -1.81857405147810     -6.08828151104451      0.00667867756275
  C   -3.10543118927103     -6.67924986105475     -0.00205627031968
  C   -3.22247948375938     -8.11166035978995     -0.02121833249210
  C   -1.32163641962444     -0.42173044607138      0.09912983825409
  C   -1.44543408240919     -1.84167130265262      0.10957062061124
  C   -2.71927889311195     -2.43566628672437      0.07397390339352
  C   -2.84853992728023     -3.85788474597826      0.04761665827557
  C   -0.95172010611834      3.80537274541665     -0.01037807491083
  C   -1.07856913026492      2.39341919077931     -0.00448799811389
  C   -2.36152567414142      1.79692566733840      0.01277807563463
  C   -2.48546401203673      0.38706051764592      0.04520637676216
  C   -0.57426850187352      8.04616763297111      0.00193916536534
  C   -0.70080347111830      6.62904607224597     -0.00141440712305
  C   -1.98260464334926      6.03277875498675     -0.01048054966532
  C   -2.10832281375685      4.61746134010968     -0.01345191489274
  C   -0.34072743960996     10.85644772435690      0.01003431898860
  C   -1.60130811148379     10.28364568141227     -0.00019782475537
  C   -1.73706645304985      8.85465269084662     -0.00404269743041
  C   0.38071929437547     -9.11542574426702     -0.02954352973708
  C   0.75367552750396     -4.88766347438254      0.01690449467375
  C   0.62850488388570     -6.31001413947357     -0.00087321679766
  C   -0.65616188205703     -6.90140970721293     -0.00604509310237
  C   -0.78062457485834     -8.32631801422364     -0.02308197671477
  C   1.17123606941293     -0.62321943108036      0.39421178052136
  C   1.00305966463400     -2.09362811297845      0.12575195465145
  C   -0.27428819821004     -2.66320867172283      0.10156739945846
  C   -0.40424491321409     -4.07601888066954      0.04330995830844
  C   1.50170752741945      3.59321053603506     -0.00398478312789
  C   1.38977539187676      2.17590620733567     -0.03238187819453
  C   0.07631486173645      1.56563223914617      0.01331305734907
  C   -0.05834077731895      0.18802603497715      0.10568812753975
  C   1.87496145813596      7.83401773461090      0.01236029647529
  C   1.75152583783830      6.41421616561068      0.00718447115477
  C   0.46310724962582      5.81360651323354      0.00409707606988
  C   0.33964661602894      4.40571015305493      0.00132456298345
  C   2.12399692720659     10.64169982247501      0.02319257177025
  C   0.83970705496577     10.06651136495987      0.01525812277667
  C   0.71293311809150      8.64272889584367      0.01073355524605
  C   2.84531283075755     -9.33253586385098     -0.01939720481670
  C   3.20298564891885     -5.10587933781366      0.00491049022012
  C   3.07718099929899     -6.51935175393920     -0.00245249830688
  C   1.78814860649868     -7.11690243632233     -0.01030809811144
  C   1.66122693672179     -8.54214500096448     -0.02114178152714
  C   3.59669062965549     -0.88555973644848     -0.09152352070277
  C   3.46168455456833     -2.26804603905467     -0.00118355448380
  C   2.15019173021972     -2.87744142640460      0.04200914681620
  C   2.03618481388244     -4.29185319040682      0.01038541402751
  C   3.94397926971970      3.37724648338821     -0.04065121288674
  C   3.81493124908724      1.96560893454287     -0.09463494416185
  C   2.53283271345312      1.39481606839788     -0.11707011887228
  C   2.36632602661148     -0.07682865284788     -0.38125489047082
  C   4.32118718564578      7.61786030892169      0.01157009247767
  C   4.19750410441266      6.20271691785113     -0.00002312865535
  C   2.90793920862231      5.60686179499831     -0.00155349628987
  C   2.78450319559942      4.19001698880293     -0.01470160320281
  C   4.58765595440976     10.42658020818705      0.02974885139228
  C   3.28237331829136      9.85532809774286      0.02359134003174
  C   3.15934057171623      8.42799348509639      0.01654566571626
  C   5.30591006860262     -9.55853803418182      0.00289638162280
  C   5.64925726560927     -5.32306796273731      0.02408958684022
  C   5.51891054846074     -6.73528265005252      0.01772616458917
  C   4.24149569930839     -7.32948188784870      0.00357673088923
  C   4.10350003684724     -8.76070712102766     -0.00481564542635
  C   6.02144585820525     -1.08765708801409     -0.02952881492484
  C   5.89778505022908     -2.49560529712059      0.00193017648385
  C   4.61568854749432     -3.09247344984369      0.01657273625759
  C   4.48685937637576     -4.50903531187732      0.02023328041614
  C   6.38519501454980      3.15885241754030     -0.04363053720387
  C   6.25529917053156      1.73989247594476     -0.06535625378107
  C   4.98134327469801      1.14602702237876     -0.09928202188523
  C   4.85596246669528     -0.27864620909970     -0.08437634837569
  C   6.76212898115339      7.40197384000166      0.00997158902143
  C   6.64299381261348      5.98664213809544     -0.00375002983757
  C   5.35503233615934      5.38977475201940     -0.01041800269949
  C   5.23238429685203      3.97319804731638     -0.03101521355080
  C   7.05019662956258     10.21835441870295      0.03271414160089
  C   5.72597876734430      9.64420424055329      0.02672772341127
  C   5.61150989707863      8.21029129129950      0.01610249035489
  C   8.10910455021420     -5.54258213804133      0.03781561863411
  C   7.95070056338653     -6.95744695718076      0.03775780098405
  C   6.70273027230390     -7.55154973444288      0.02504397168988
  C   6.53838106840513     -8.98517325140797      0.01784794574314
  C   8.47179170048893     -1.30039063821637      0.00129041977256
  C   8.34601670391826     -2.71332422453359      0.01706729018238
  C   7.06635653012381     -3.31548295003227      0.01682529723297
  C   6.93691137983736     -4.72208771513415      0.02852687237301
  C   8.83502804957007      2.94087512484372     -0.02112694535986
  C   8.71324236027567      1.52644145018966     -0.02254594707749
  C   7.42730214693787      0.92341926607308     -0.03980519157827
  C   7.30782254191987     -0.48302498241679     -0.02305826683795
  C   9.19359192787989      7.19107122412822      0.01272131913949
  C   9.09911832762734      5.76955896188635      0.00092259545555
  C   7.79953308240160      5.16819944541389     -0.00996274055097
  C   7.67707145070035      3.75750354283030     -0.02578785861552
  C   8.16241935480196      9.43708460675684      0.02830885901054
  C   8.07158451777787      7.99667959543826      0.01670563121978
  C   10.92400294703423     -1.52818325561659      0.02559481084293
  C   10.79192252030628     -2.90462182404688      0.03718394797754
  C   9.51657947826138     -3.53540672075055      0.03292619549271
  C   9.37260735946521     -4.93216050199454      0.04251754755723
  C   11.27639759936996      2.70535957053393      0.00385856441370
  C   11.16971803202175      1.32666921344899      0.00714078129130
  C   9.87254261873509      0.70943730330447     -0.00317362699743
  C   9.75230415039399     -0.69578590284980      0.00721811813492
  C   10.23322753996325      4.94792485646247      0.00106529717024
  C   10.12895088268325      3.54538776973121     -0.00634692088870
  C   12.33122478683982      0.47053332025383      0.02299025720264
  C   12.21497367801912     -0.88379287555477      0.03151160113854
  H   -9.76417687878759     -1.63602507190448     -0.01578634064764
  H   -9.18124525487772      5.05454884867933     -0.04758021307871
  H   -10.60385910651799      3.04075084523468     -0.04582062311497
  H   -10.81712588538908      0.59393667150926     -0.03239827099098
  H   -7.67302215986832     -6.11296228826391     -0.01221146814117
  H   -8.71636499588271     -3.87522640490269     -0.00728224915775
  H   -6.33586214825309      9.10258145120495     -0.03667175277572
  H   -7.75853258183074      7.07960893130731     -0.04542027558829
  H   -4.63600481850521     -9.76514241829425     -0.04321719307720
  H   -6.64467044166767     -8.35109117467519     -0.03033919602736
  H   -2.69960766373878     12.16074768963452     -0.00490512625853
  H   -4.92717049140836     11.12432685996219     -0.02405938242936
  H   -2.18052790404212     -9.97592813592226     -0.04405702193775
  H   -0.24582004185138     11.93618088269534      0.01301111430375
  H   0.28518674681685    -10.19509232533184     -0.03913805175371
  H   2.21756748651020     11.72156051575764      0.02756326900258
  H   2.74993630807790    -10.41222320551659     -0.02673598310942
  H   4.68242207399080     11.50632738294490      0.03626141117393
  H   5.20292756658720    -10.63756621457019     -0.00283956314059
  H   7.13889558301024     11.29863309447769      0.04067759475010
  H   8.83779973246353     -7.58025320714281      0.04488322605318
  H   7.42989389920393     -9.60166019561840      0.02410757360520
  H   10.17738094394968      7.64603860418035      0.01915294626243
  H   9.14865461188537      9.88678498809492      0.03323895327025
  H   11.68018125391236     -3.52566780863956      0.05019928778307
  H   10.26001670985262     -5.55449368824076      0.05141317892437
  H   12.25814369225012      3.16459607993645      0.01247500966827
  H   11.21681565265952      5.40319321844639      0.01019692013162
  H   13.30964978101504      0.93690946656288      0.02840316919257
  H   13.09923848773933     -1.51054094296742      0.04436868508098
  O   1.44457677518049     -0.55786637573878      1.81444675209270
  H   1.54894761120527      0.37153174201095      2.10714608708314
  O   2.09051084303914     -0.14541083743313     -1.80081662202373
  H   1.97510793517931     -1.07397169757486     -2.09156925200640
