192
Coordinates from ORCA-job input-ccc-6oh-geom
  C   -8.60785279488074      0.20353652154000     -0.40366458623369
  C   -8.70115508163862     -1.14497661585086     -0.61408563837012
  C   -8.25142122746241      4.42714512891830     -0.23495448020015
  C   -8.38126347825293      3.05626120732915     -0.24031513745160
  C   -9.66937378422053      2.40712928117216     -0.30377961744206
  C   -9.77759548121224      1.05495189767809     -0.36157734313509
  C   -6.56396706808057     -4.21437713277021     -0.31124068647933
  C   -6.67507010992149     -5.63252083579398     -0.23233450997561
  C   -6.14411809233739      0.01226802501477     -0.17899167816854
  C   -6.24298224117153     -1.38352351496093     -0.35541645626013
  C   -7.49865111626493     -1.96917358077236     -0.93715970747995
  C   -7.66137057383883     -3.41293545796544     -0.58632984612439
  C   -5.80562442981571      4.23871133494096     -0.02536550175533
  C   -5.92700571385128      2.83519281447130     -0.02088819267462
  C   -7.20583042755445      2.21995799385682     -0.17678115813784
  C   -7.31453958657783      0.83534616718473     -0.26072009975288
  C   -5.40609522243688      8.46173356847964     -0.19481042953446
  C   -5.56132376148022      7.06297405087592     -0.12473547505341
  C   -6.83246458687237      6.44647172622082     -0.19946075795166
  C   -6.97573982815246      5.06379346069803     -0.15728492140646
  C   -4.56356603154127     -8.67862303875710     -0.02067311318647
  C   -4.14535819959186     -4.44811344603212      0.09266616557865
  C   -4.29645807324140     -5.83709556647722      0.16397327587811
  C   -5.56133683179059     -6.43684930628008     -0.02565255695570
  C   -5.66215716619623     -7.88653082604438     -0.05790583547363
  C   -3.73767237219375     -0.21836405068460      0.23676575288719
  C   -3.86350987850933     -1.62034050903989      0.12919035738654
  C   -5.13434650655437     -2.20646150290053     -0.13638421277143
  C   -5.26408476686221     -3.62531428318276     -0.14068406592569
  C   -3.38133278130962      4.01981427363246      0.28562815528343
  C   -3.52917866247267      2.63596106863719      0.37946153347880
  C   -4.77259153230179      2.02768448232134      0.16709646636090
  C   -4.88991598881499      0.60296738290453      0.10310594799474
  C   -2.98273066559469      8.24485595767579     -0.00358414884237
  C   -3.11684036117003      6.84270814034095      0.09623610540301
  C   -4.39634187153091      6.24629528498429      0.02384793526362
  C   -4.53116351857769      4.83794098091743      0.08819066523515
  C   -2.75711294316180     11.06059309800779     -0.21886993788352
  C   -3.98989177063226     10.48476275659713     -0.23801271348294
  C   -4.14914188712976      9.05785063269437     -0.14322762297124
  C   -2.11114151255118     -8.87507662655086     -0.00958586696071
  C   -1.68687078385408     -4.66427473866218      0.31890281562903
  C   -1.79889212025823     -6.07524487969588      0.31385457783621
  C   -3.13796061716371     -6.69587513657335      0.60080903571186
  C   -3.23755492314233     -8.12711095074383      0.12366818909708
  C   -1.31928872846153     -0.42362318465061      0.46558904435929
  C   -1.42675656963881     -1.84715956022214      0.37968596349998
  C   -2.71214856788928     -2.44932578048407      0.26147587936382
  C   -2.84129139467768     -3.85077952989719      0.24566691068859
  C   -0.92012449500364      3.80469840106355      0.47547806587120
  C   -1.03584325811625      2.41537259187358      0.56689270976084
  C   -2.37344420669677      1.80131914801954      0.86178604291554
  C   -2.46203914953878      0.35938390371961      0.45512941365970
  C   -0.53563697716764      8.04591540262285      0.12938851088651
  C   -0.65260536914795      6.62411682185236      0.26596786723969
  C   -1.95415640079153      6.01666053457345      0.25236824455578
  C   -2.08620132566443      4.62943066915248      0.36118675976759
  C   -0.29954641962341     10.84519780979400     -0.11928130452263
  C   -1.56322569253421     10.26510550590298     -0.10520976027022
  C   -1.69248374620310      8.84488553433855      0.01442296071707
  C   0.34676002454882     -9.07386411608318     -0.01281413604290
  C   0.75925067187995     -4.87169436491404      0.33348337299862
  C   0.63119842424647     -6.27461813768663      0.23372067718479
  C   -0.67045287747432     -6.86911598046925      0.21905098771598
  C   -0.78716719587435     -8.30560908421698      0.08140890275497
  C   1.13363899683308     -0.61639311353868      0.51836331718287
  C   1.02888592837599     -2.05242459217990      0.47956635528959
  C   -0.27419552265417     -2.64980115670154      0.41031326728503
  C   -0.40013518940474     -4.05994738441440      0.35277102081997
  C   1.51200112795580      3.60291075134371      0.58517317868110
  C   1.39701687496161      2.20947387310351      0.56043237781289
  C   0.10633864728713      1.60474682873279      0.55620241964641
  C   -0.00937001593449      0.17754914218778      0.53575947517847
  C   1.91163558064978      7.84527937450259      0.17375679217351
  C   1.79827071255833      6.42941596809855      0.33851548393265
  C   0.49222059867677      5.83104242268555      0.38138903622165
  C   0.37212436080438      4.40961477839904      0.48374843818440
  C   2.15928707847782     10.64548156241688     -0.07352340218893
  C   0.87252298315271     10.06453485605727     -0.03280996865767
  C   0.74818923856516      8.64403677727968      0.09392511618338
  C   2.81137924817503     -9.27531916513855     -0.06897812127947
  C   3.18752952056462     -5.08871321979048      0.39954877274679
  C   3.07109262877411     -6.48267555656614      0.23139512830914
  C   1.78616464594470     -7.08055099972654      0.16107060308362
  C   1.66034070084327     -8.49956195041520      0.02895354619949
  C   3.59556983190274     -0.83623854469106      0.41239426149875
  C   3.47989220504371     -2.24843395786989      0.45688355446348
  C   2.16985923805528     -2.84950967696805      0.48088304337418
  C   2.05414163499180     -4.27838183298123      0.41423291068644
  C   4.00657313770823      3.38199601587407      0.48355789686503
  C   3.85918556086604      1.99080092341444      0.43352821495771
  C   2.56371073995915      1.38341927018882      0.51926964360500
  C   2.43527864001388     -0.00875064080214      0.49302141582000
  C   4.35039486040952      7.63471442797713      0.14749798556993
  C   4.22541168661188      6.22402102352766      0.29328374247267
  C   2.94609354289820      5.64976201953312      0.43963494139105
  C   2.83904944860480      4.22921647515819      0.90552194104750
  C   4.61886795129542     10.43938641196477     -0.06908383396044
  C   3.31308405777066      9.86738186428462     -0.01139252810548
  C   3.19217307078620      8.44083604067367      0.10855768259275
  C   5.27884393031425     -9.49704585020744     -0.22363578678282
  C   5.68130893217207     -5.31308358041637      0.23990152804635
  C   5.53386493533232     -6.69384676861081      0.07878357609776
  C   4.23555978105108     -7.29880196729321      0.10848824136662
  C   4.09855545004362     -8.69258962761956     -0.05088203331747
  C   6.02325980249123     -1.06007562980979      0.18589361305033
  C   5.89767282973628     -2.46734805831940      0.26463813740742
  C   4.62890057275955     -3.03930641924283      0.43892748070513
  C   4.52376210168145     -4.50485555397608      0.75798209819081
  C   6.40448358488324      3.17042321211456      0.11464084462194
  C   6.27789590489463      1.76501937135362      0.12314782687202
  C   5.00169427867349      1.17149034917260      0.27648033810036
  C   4.87173191722437     -0.24326554204423      0.29199511964827
  C   6.78557520517000      7.41870792344130      0.04498571381677
  C   6.65996313815905      5.99492471272020      0.10732166086062
  C   5.38347045140448      5.40950531566744      0.25383874108774
  C   5.25471442296795      3.98234204510277      0.29372927725404
  C   7.07739482749926     10.23352421171944     -0.10641366950605
  C   5.75482542201451      9.65958980345290     -0.03985331983784
  C   5.64209470602473      8.22539409439259      0.05380654921415
  C   8.09804397006065     -5.51701405968799     -0.11904476165962
  C   7.94644827520962     -6.91261605458452     -0.21937328864264
  C   6.69045198590776     -7.51028468887965     -0.14543956950009
  C   6.51716682953487     -8.93000969129199     -0.27665456755014
  C   8.45439972758891     -1.27735619860161     -0.08715872067530
  C   8.32640070879560     -2.69302718543484     -0.02853978353007
  C   7.06753215804808     -3.28740565716683      0.13696732965021
  C   6.93664507837329     -4.70714666689641      0.10148752726150
  C   8.82641015120345      2.95335267935702     -0.21262296665954
  C   8.70178992567208      1.53812554952047     -0.23516576305907
  C   7.43035668572065      0.94465467905845     -0.02816615723618
  C   7.30408565400497     -0.46368931219809      0.01887611359507
  C   9.21294111440854      7.20874383869844     -0.09720102173648
  C   9.11150927190029      5.78258088093643     -0.09718449910666
  C   7.81446481815505      5.18168883232442     -0.00297621247370
  C   7.69437648374027      3.76492761429136     -0.03811185120668
  C   8.18800114009343      9.45201995679260     -0.10694200579780
  C   8.09501325169749      8.01220372346907     -0.04986059041536
  C   10.90625978546570     -1.50745972801116     -0.32178965927121
  C   10.77965028724951     -2.87005270288007     -0.27301597757214
  C   9.50051096007609     -3.51408182391893     -0.17420229963536
  C   9.36703081772737     -4.89272319475717     -0.22068241353772
  C   11.24928243608702      2.76625185096537     -0.52717026004350
  C   11.11472271822626      1.32368722748344     -0.91747127820661
  C   9.83080558888894      0.71236686546823     -0.42051018405363
  C   9.72465548447612     -0.67020667927289     -0.28600006633243
  C   10.23756885983281      4.97252027507290     -0.20901431567250
  C   10.13718655495930      3.55339089185347     -0.31123001583633
  C   12.31160863190110      0.47954254610098     -0.57199754162515
  C   12.19939165738964     -0.84993199355473     -0.37819872994890
  H   -9.67495579641074     -1.60619776707246     -0.73142746424876
  H   -9.13778585251976      5.04829361780710     -0.29450471905065
  H   -10.55599463495474      3.03066199962188     -0.30902364000528
  H   -10.75184180764435      0.58323362960775     -0.41667418449128
  H   -7.64746815859700     -6.08892144683986     -0.37424656431302
  H   -8.64334976576638     -3.85564240268914     -0.70515731827292
  H   -6.28633954471939      9.08505159003217     -0.30126655198440
  H   -7.71279492375082      7.07087047369329     -0.29947163746753
  H   -4.65944674903617     -9.75330558832936     -0.13439179663726
  H   -6.64767498597441     -8.32214821835180     -0.17525290206449
  H   -2.65106797151056     12.13631298045020     -0.29748745473479
  H   -4.88044338300225     11.09521546910942     -0.33239265341981
  H   -2.19344425475999     -9.93577747282722     -0.22419731832146
  H   -0.20917986762539     11.92143458727193     -0.20988748182670
  H   0.25752235709816    -10.14753135799145     -0.13498498170038
  H   2.24690676064735     11.72187351193615     -0.16540214686153
  H   2.72348339911928    -10.34981531332288     -0.18077534778025
  H   4.71101795918567     11.51659377728741     -0.14588190527324
  H   5.16003767324280    -10.56898483576826     -0.33051432527237
  H   7.16449069428387     11.31253756045601     -0.16087435534030
  H   8.82367775450970     -7.53126840676984     -0.36983919063985
  H   7.39717725628975     -9.54476559346688     -0.42652725888322
  H   10.19609419292409      7.65977804993478     -0.16377711861560
  H   9.17419795248149      9.89821519642327     -0.16244769359236
  H   11.66691242815852     -3.49250347335672     -0.30606133050533
  H   10.24703281934258     -5.51238993080038     -0.35033952689497
  H   12.23552253903445      3.21305112930213     -0.57690881129878
  H   11.21826166372061      5.42950798152029     -0.27050549374843
  H   13.28721322578710      0.94936947554894     -0.62756336625702
  H   13.08404006610956     -1.46495230343216     -0.25146844607135
  O   2.96470524910099      4.23800689610385      2.36929191312454
  H   2.30172090942973      4.84867241757945      2.75734101409958
  O   4.61864883930958     -4.52079539305289      2.22350312972080
  H   4.62018008632469     -5.44632626219078      2.54935195658471
  O   -2.55715164812751      1.83732090565012      2.31803639541839
  H   -1.87170548644790      1.28811686808731      2.75587604719985
  O   -3.30048546159924     -6.71621871457024      2.05795522606784
  H   -2.62262104681971     -7.30045138320964      2.46008895792222
  O   11.05933075712458      1.40240517788743     -2.38810631513181
  H   10.87160741317046      0.51621465597456     -2.76614218305129
  O   -7.37856429232605     -1.99379933020629     -2.41180847753240
  H   -6.97534369722134     -1.15946741015530     -2.73645858843817
