187
Coordinates from ORCA-job input-ccc-1oh-5epoxy-geom
  C   -8.65021235395505      0.22527296837799     -0.19114615319176
  C   -8.75016840157367     -1.15688230573154     -0.23171765766786
  C   -8.26921998957258      4.45286337838983     -0.16857328267051
  C   -8.40782152074041      3.07561266027530     -0.16574230788846
  C   -9.69114749030164      2.43350006180986     -0.30208933545845
  C   -9.80542330484288      1.07804951732138     -0.31495018558609
  C   -6.58930018358443     -4.21158332143003     -0.09384393579511
  C   -6.68505784177808     -5.64513144661743     -0.21611847481841
  C   -6.21215248406023      0.02469500789312      0.10221991458496
  C   -6.33030250194876     -1.38504829242967      0.04595447561603
  C   -7.60820545874230     -1.98519683460126     -0.12578152739820
  C   -7.70361072618263     -3.39849899249785     -0.20099080858742
  C   -5.83923538949476      4.26122075596829      0.08631058025277
  C   -5.97315587405582      2.84297994173580      0.12373121222126
  C   -7.24618023335229      2.24565189242895     -0.02518455806466
  C   -7.36436705462276      0.83820897710050     -0.03223796372850
  C   -5.44183640677645      8.50974550427322     -0.07203992345031
  C   -5.60168847630756      7.09198790322320     -0.04125965419689
  C   -6.85457306218479      6.48104417317182     -0.09650174876728
  C   -6.99631024290180      5.07555379568652     -0.05671795657762
  C   -4.53934499099160     -8.67290615706676     -0.23821534559795
  C   -4.15337330909290     -4.42082169697807      0.25045516240069
  C   -4.32716085113049     -5.86873856011632      0.36878103163510
  C   -5.60987929915655     -6.46358133981595     -0.04667996958882
  C   -5.65512655837837     -7.89144668451056     -0.22666650067844
  C   -3.75478794911022     -0.20245690893461      0.37172755264379
  C   -3.88902442797196     -1.61973640419974      0.29153511808901
  C   -5.17398928907484     -2.20650860110713      0.14903454929320
  C   -5.29642080498930     -3.61286548489312      0.10167257223315
  C   -3.39286201986761      4.07947530449649      0.30268047314792
  C   -3.56342227273674      2.66208968926199      0.61439093956815
  C   -4.84196305951091      2.01995330567731      0.32272585352738
  C   -4.93403437817063      0.63221485236066      0.28827812304998
  C   -3.01138406572470      8.28195020641631      0.00679132191794
  C   -3.14357168931503      6.86604618176364      0.05440338481946
  C   -4.42822997171883      6.27393997744530      0.05069044784323
  C   -4.55510291271184      4.87038340088672      0.14410571979748
  C   -2.79702929853770     11.10451257695948     -0.01701822561940
  C   -4.02972452050362     10.53426221019624     -0.04502925112717
  C   -4.19667044137104      9.10042355643318     -0.03632596913807
  C   -2.07737202581312     -8.87509556541544     -0.26525105343065
  C   -1.69454984402850     -4.69330036658439      0.32350028737868
  C   -1.78237490149245     -6.08403675551274      0.24254168744382
  C   -3.08336463424853     -6.74095695245219      0.36099963163080
  C   -3.21025505037298     -8.14531960261015     -0.06857966104029
  C   -1.32304226307698     -0.44764130826507      0.40205508908621
  C   -1.44707370208280     -1.85309856822521      0.37409914690160
  C   -2.73671347177281     -2.44428105151608      0.33706098191477
  C   -2.87709684719426     -3.86403149069209      0.32627769670933
  C   -0.93819262829511      3.79590566410685      0.22364759014250
  C   -1.03389759645311      2.40951253581507      0.37162976408092
  C   -2.32272325183902      1.78982005398980      0.67452284685025
  C   -2.48218262009577      0.35309136259066      0.46337556779369
  C   -0.57619992322030      8.05170357354184     -0.00874292945861
  C   -0.70316670963316      6.63755110117502      0.00796435934681
  C   -1.98416050208991      6.04644733378420      0.09237458782170
  C   -2.12169675954960      4.63131523499296      0.22446830784583
  C   -0.33961208694665     10.86959975189493      0.01880115272794
  C   -1.59660979309138     10.30282158072631      0.00316224901322
  C   -1.74089493170072      8.86949204348752      0.00446640013300
  C   0.37793451545610     -9.07340032063894     -0.29169682956783
  C   0.75750287180129     -4.88413684388609      0.31102877341924
  C   0.64368606499911     -6.29862358163840      0.16271121812394
  C   -0.63097955715547     -6.88416564463809      0.08858244066947
  C   -0.75924679465729     -8.30420315150794     -0.14467071950600
  C   1.12269505386247     -0.64892565267221      0.33942759942614
  C   1.00361901029680     -2.06970842228722      0.38365611483703
  C   -0.27786490459278     -2.66819727058015      0.37304148659334
  C   -0.40858666994692     -4.08038735658944      0.33612099691477
  C   1.46153642448820      3.55318322801364     -0.08912030981483
  C   1.36939688154285      2.16588342568203      0.09911805020916
  C   0.09509712312254      1.57851424917824      0.28217876264694
  C   -0.02777985732034      0.15489868541728      0.36025235418268
  C   1.85938659155033      7.83249127812450     -0.11766057864486
  C   1.70650660656036      6.42888031481530     -0.20744121831493
  C   0.46495843014697      5.82155338951884     -0.08430067252250
  C   0.33815014082368      4.38138178912398     -0.00476463552078
  C   2.12334478243497     10.63221029327925      0.01698541845256
  C   0.84357020855617     10.07212293822115      0.00312338542729
  C   0.70681571678462      8.64761032176110     -0.03498437699561
  C   2.84646664750108     -9.28458285773696     -0.33576271678640
  C   3.19261481422161     -5.14364301412671      0.58151321010502
  C   3.08861313554943     -6.55034501432586      0.18782873078881
  C   1.81275712143739     -7.11147551983022      0.04959211448897
  C   1.68036503359619     -8.51003325551177     -0.19734127849080
  C   3.58708572855627     -0.86800961131073      0.29497070159010
  C   3.47617020876349     -2.27550329459678      0.41150766565943
  C   2.17079395405504     -2.89040026857281      0.42329429703587
  C   2.02424051612580     -4.27724273797716      0.42101703425006
  C   3.97177996666855      3.33002635068243     -0.22521016904166
  C   3.83293892426811      1.94406363802854     -0.00920399132256
  C   2.54254798434899      1.34432661609397      0.10336834356746
  C   2.41962895462080     -0.04613260652550      0.24977716144405
  C   4.32553080725137      7.60246942738333     -0.19930940908012
  C   4.21201703226458      6.20732600185557     -0.32172434500752
  C   2.88746804837419      5.62501761770567     -0.50637671001824
  C   2.75971668848022      4.11657041737745     -0.45558192647733
  C   4.59033039318494     10.39710407707623      0.02607074210121
  C   3.28248862193126      9.82852693968900     -0.03148864141416
  C   3.15226330733352      8.42021051181729     -0.12734998151305
  C   5.30854146638761     -9.49903049052648     -0.44163572977683
  C   5.71160913265399     -5.33470743048990      0.22663355078902
  C   5.55221804892179     -6.70930101738552      0.03337673302471
  C   4.24560000648159     -7.31480894382332      0.01076662183640
  C   4.11573417169747     -8.71296610485541     -0.25505051898152
  C   6.04298571280042     -1.06388804492631      0.28460671326239
  C   5.91560036647192     -2.48026794119202      0.35155136752516
  C   4.65324873916052     -3.05458173095215      0.44196103837232
  C   4.55976320898639     -4.50900597059932      0.60174060155164
  C   6.39764997731100      3.13558530229508     -0.18714073443739
  C   6.27445109610385      1.73491139364960     -0.00669340386354
  C   4.99276495956569      1.13767043677881      0.07834551230660
  C   4.86840481781917     -0.26678687840974      0.22060497139735
  C   6.76252611785070      7.37415069779815     -0.25620267781290
  C   6.61699985838413      5.98855102466896     -0.36921598522978
  C   5.34161421392606      5.38727415140675     -0.34219658262772
  C   5.21995215046557      3.94040921776474     -0.28179865055774
  C   7.05165676284529     10.18769167553261      0.07598729598310
  C   5.72619679057515      9.61677596550845     -0.01894912030728
  C   5.61154571174741      8.19226406647155     -0.15495560758802
  C   8.13322428375736     -5.52862845930456     -0.05596905640370
  C   7.97093844294743     -6.92033938365321     -0.22213003234625
  C   6.71195397718556     -7.51390793846752     -0.20192084222014
  C   6.54295704739455     -8.92917977622725     -0.41562949021327
  C   8.50545880599937     -1.28118149145667      0.64644860192023
  C   8.35922405909228     -2.73090679069847      0.27754226229510
  C   7.10427977619954     -3.30780750447189      0.27475433832420
  C   6.96883892680860     -4.72535242072895      0.14022103496064
  C   8.84055752606960      2.92560646201737     -0.16972615209016
  C   8.73115420818309      1.53090959004876      0.01947408218593
  C   7.44202633056882      0.92718840842947      0.09865618637419
  C   7.30903561437879     -0.45806083566661      0.27189387740154
  C   9.21932472579428      7.21672320321557     -0.19475852479699
  C   9.18165129183728      5.79316816520261     -0.51087974668094
  C   7.78475299352286      5.13648521154150     -0.59218654992830
  C   7.68234664281318      3.70827653147334     -0.29273339254232
  C   8.16160716681210      9.41233040837446      0.02824361669350
  C   8.08774936291905      7.97707986812501     -0.16051662918026
  C   10.95551780017356     -1.50982989334578      0.11522258959068
  C   10.81351855260025     -2.88541404674306      0.08826473848009
  C   9.53270420035533     -3.52801288433931      0.11168522782399
  C   9.40243972006317     -4.90295281284988     -0.06716255968138
  C   11.30972747564441      2.69418955366070     -0.11178763621569
  C   11.20639518348389      1.32651920621296     -0.04702410431666
  C   9.90534177327782      0.70319798956124      0.07095328101400
  C   9.80827410465616     -0.66402065401471      0.21599166668200
  C   10.30492170588820      4.91399057662715     -0.21480213028323
  C   10.16144763002839      3.54923616509562     -0.17645495245901
  C   12.36730040103179      0.47275322413838     -0.06378504269477
  C   12.24858108603024     -0.88011298914211     -0.00887128944264
  H   -9.72285408543814     -1.61827336390657     -0.35651904067782
  H   -9.14842223782989      5.07791052935399     -0.27276986037700
  H   -10.57030570183890      3.05986171932543     -0.39880387186855
  H   -10.77712040023706      0.61040312718527     -0.42351645796083
  H   -7.64922422979842     -6.07093826862493     -0.47049575072707
  H   -8.67848718587271     -3.84742503309010     -0.35245433216329
  H   -6.32817466814616      9.13156418306933     -0.12087471531587
  H   -7.74283777036151      7.09604479424840     -0.18202238479967
  H   -4.63603857821405     -9.73731001355964     -0.42151462366200
  H   -6.62484967491722     -8.34400678725419     -0.40183791788924
  H   -2.69086850095556     12.18316706280955     -0.01765381531878
  H   -4.92002259153348     11.15188757247264     -0.07052738871441
  H   -2.15439179334772     -9.92169801846925     -0.53807971820322
  H   -0.23914510021796     11.94865563158178      0.03192479191229
  H   0.28290138233818    -10.13574361677160     -0.48489379181578
  H   2.23151593546535     11.70940112911451      0.06718262118335
  H   2.75451939726513    -10.34883956790097     -0.51895326968664
  H   4.68492636077715     11.47279282096658      0.11895076621624
  H   5.19848781888547    -10.56302573073582     -0.61606258703946
  H   7.13728786050336     11.26169508222322      0.19379347183102
  H   8.84791286070927     -7.53837316138694     -0.37557536745169
  H   7.42972334556807     -9.53288545373513     -0.56979669294204
  H   10.18317963998170      7.67530245573780     -0.00562557089474
  H   9.14525116324029      9.85949450797585      0.11168444660479
  H   11.69656868215244     -3.50669347851404     -0.00728270564638
  H   10.28856893394249     -5.50910603096069     -0.21567254038242
  H   12.29034023437206      3.15389832709976     -0.14887806658234
  H   11.28627984162708      5.35514997697345     -0.08316839291645
  H   13.34324354232708      0.93761803160630     -0.14091018682367
  H   13.12669637707428     -1.51389294490081     -0.05357402593700
  O   8.61400341120556     -1.23027932941213      2.11401635549403
  H   7.85615504407238     -1.70207128238046      2.52130424649285
  O   -3.79125548759594     -6.43644141892899      1.64498833155656
  O   -2.96514632522172      2.27699872742664      1.93605023128206
  O   3.91389094896840     -4.93186594919657      1.88585996961295
  O   2.75370507402596      4.82644279448911     -1.77232194458171
  O   8.52653247410625      5.46725648539368     -1.83877847075442
