190
Coordinates from ORCA-job input-ccc-4oh-2epoxy-geom
  C   -8.68544615477248      0.24591553486078      0.33438136618201
  C   -8.79955618593896     -1.09985915579250      0.18058286467582
  C   -8.25416123952997      4.49954713216149      0.22560322416886
  C   -8.38204824231925      3.11347776057624      0.32340205663549
  C   -9.68705017501496      2.47601785975664      0.36467082071594
  C   -9.82619864498037      1.12807097224599      0.34879664774818
  C   -6.60668692002161     -4.18015619897882     -0.11920026173823
  C   -6.70884065357505     -5.56503122174442     -0.08533781102770
  C   -6.19044220426108      0.02620770540754      0.15154939483654
  C   -6.34117007399977     -1.35008509307584      0.00423668261505
  C   -7.64772434012956     -1.96562962085106      0.08455552361168
  C   -7.75578609038904     -3.33329459300353      0.00703199280384
  C   -5.82115783109430      4.29559901967697      0.15650088479399
  C   -5.95585843962905      2.88638420255162      0.22362770485526
  C   -7.22203336454092      2.31361574087032      0.34856533418859
  C   -7.33887656080530      0.84397665506937      0.67303350332824
  C   -5.41643412304320      8.54193057206692      0.03819920340031
  C   -5.57662939364134      7.12774551778854      0.07815914674883
  C   -6.83688261201023      6.52288597583714      0.11578667234252
  C   -6.98543062351877      5.11816103239767      0.16684037502932
  C   -4.55301245066992     -8.61550721396584     -0.06870496176213
  C   -4.14135328434947     -4.39784739912575     -0.32936467831094
  C   -4.27735606325019     -5.81269172391308     -0.22499205025117
  C   -5.56699681182870     -6.39932618867841     -0.13190699095278
  C   -5.67342630788527     -7.81706385977975     -0.06159207095758
  C   -3.77476478816386     -0.12473614472292     -0.23115151554129
  C   -3.95329668918223     -1.53047198418710     -0.55867525206788
  C   -5.22117599762646     -2.17810545262761     -0.26307146363829
  C   -5.31333410122011     -3.56553473684205     -0.27085646817438
  C   -3.37943924747050      4.07066328442625      0.07886906992722
  C   -3.51341833290172      2.65006275951046      0.05008158425660
  C   -4.78613017425466      2.06050520775768      0.13081522713540
  C   -4.91792538432175      0.64449987958351      0.03640637173349
  C   -2.98809101111861      8.30911912537773      0.04799049579405
  C   -3.12180974715460      6.89606934202738      0.06922934953100
  C   -4.40472052070365      6.30087023024891      0.08151160909593
  C   -4.53775097675816      4.89055925702026      0.10422857954854
  C   -2.76493848505698     11.12977647452094     -0.06260573546371
  C   -3.99876571843917     10.56315886952188     -0.03178608219260
  C   -4.16335048955099      9.12860440618933      0.01884610980200
  C   -2.08118059967283     -8.84453575107344     -0.14855827718488
  C   -1.69913836748688     -4.63795074603232     -0.27640938778978
  C   -1.82725405614199     -6.05390774774341     -0.22426923828511
  C   -3.12086063035699     -6.63533391587314     -0.20239518662072
  C   -3.25153822662398     -8.04853449217561     -0.13504699075404
  C   -1.31150974029618     -0.39593133627052     -0.25782645132864
  C   -1.40545123839857     -1.79538288586659     -0.35268127334485
  C   -2.68945332349633     -2.42067760451694     -0.63341550710672
  C   -2.85657053872008     -3.84474755142063     -0.39513054310803
  C   -0.93443390444433      3.84564142171890      0.06148652960606
  C   -1.06287118492007      2.42666106590549     -0.01141911107600
  C   -2.34844223540923      1.83571054491912     -0.05912739970038
  C   -2.48711597805279      0.43230733219464     -0.21239810528341
  C   -0.54735079617038      8.08840505513314      0.10738687651600
  C   -0.67202273475056      6.66249476491028      0.13673186247280
  C   -1.96296776331375      6.07625022211456      0.08478798265684
  C   -2.09555716420432      4.66438562441353      0.07257373277770
  C   -0.31114441049671     10.89876374959715     -0.09248278270704
  C   -1.56465351262452     10.32970041462879     -0.03282329207163
  C   -1.69850668318987      8.89393847126857      0.04656334334572
  C   0.37290156066787     -9.18833805674099     -0.35505605158740
  C   0.74368346417206     -4.86148959042572     -0.15029528362940
  C   0.62203851423548     -6.26789237439264     -0.16781933062230
  C   -0.67144651085432     -6.86939269376839     -0.21082624000699
  C   -0.82621623320016     -8.27745117981513     -0.21860215125469
  C   1.12767405220231     -0.62052370692101     -0.04898900566107
  C   1.00660390175459     -2.02303294698879     -0.08443993420666
  C   -0.28111797281450     -2.61889819583769     -0.21800412194365
  C   -0.41158234681392     -4.04063984434565     -0.22975764927236
  C   1.50777262681670      3.61740322298826      0.10119244375688
  C   1.38936212855291      2.21587700411010      0.06478070877212
  C   0.09362483883532      1.61075547545774     -0.01773257464356
  C   -0.03052284503678      0.20240101173229     -0.11304134339667
  C   1.90176660591328      7.89503218208634      0.14269038952852
  C   1.78570500772437      6.45483240069096      0.56444644632644
  C   0.46404811818669      5.84748167683797      0.20478663499652
  C   0.34887593484939      4.44576240234736      0.12632310739976
  C   2.14423136934637     10.68272425606210     -0.13237542692258
  C   0.87329195210739     10.10799156504766     -0.06255755398361
  C   0.75202001141058      8.68091992451154      0.07125142628248
  C   2.82245599547483     -9.27729126576921      0.04596751506100
  C   3.18926567486963     -5.06335495145299      0.06102022887083
  C   3.06778612029602     -6.48229218505517      0.04507584116391
  C   1.79177834884703     -7.08523809939632     -0.08209195866029
  C   1.69467648196445     -8.49645259438098     -0.10667955001665
  C   3.54433496961146     -0.83860553578566      0.20858157557050
  C   3.43725955522141     -2.24011996172999      0.14095848113875
  C   2.15975774233641     -2.84435002284436      0.00102722986320
  C   2.03688884653663     -4.25640257914741     -0.03530447144973
  C   3.95244235255859      3.40420937916104     -0.05575292058672
  C   3.83265931808916      1.99437938826952      0.06809222505855
  C   2.54127692483923      1.39599282873119      0.09208166772258
  C   2.41643151508460     -0.02492362542512      0.08788135713326
  C   4.33422349876164      7.64773447106884     -0.11160626284176
  C   4.19594042343545      6.21260863554931     -0.09448016058964
  C   2.93689671109654      5.62065334597791      0.10187093272306
  C   2.79751422056409      4.22706218381215      0.04732869745048
  C   4.59939021418550     10.46315545278815     -0.21114299238286
  C   3.30606593734913      9.89069034247249     -0.13089976191210
  C   3.17778635771042      8.46139605809733     -0.02397022797444
  C   5.28476549632535     -9.50335196991091      0.28082725410538
  C   5.64896441287394     -5.28413360952877      0.22646034223203
  C   5.51872702756375     -6.68768241139378      0.23501714047162
  C   4.23089815533493     -7.29141496735891      0.15394674051242
  C   4.10552856066689     -8.69977396112546      0.16867157305115
  C   6.03777465187974     -1.06676690751457      0.28992549147077
  C   5.90246430767483     -2.45190622500690      0.25438626708806
  C   4.60129388402849     -3.06225074709910      0.20268269229676
  C   4.47846333754138     -4.45658377046998      0.16822770023341
  C   6.40224168572914      3.16906549059122     -0.19616895491002
  C   6.26020687816307      1.76796395920138      0.03425900071444
  C   4.98923134649731      1.20728983253435      0.16741962386779
  C   4.84813619006529     -0.21826725817464      0.61932070992518
  C   6.75936561427561      7.44749481691368     -0.42166956584338
  C   6.59067456239210      6.01850911082151     -0.63897871919183
  C   5.31718844003338      5.39701656057296     -0.30576230265189
  C   5.22941186616545      3.99767571634765     -0.21473057429892
  C   7.06010872305319     10.23425477011598     -0.32250962821431
  C   5.73867154025654      9.67459578943159     -0.24820504710132
  C   5.60807939000790      8.23931723770710     -0.24805644911103
  C   8.10184450572927     -5.51122313775471      0.32816123572568
  C   7.94802154667547     -6.90927643694313      0.36094416912010
  C   6.68619470747167     -7.50696938261974      0.31729253817229
  C   6.52408032400713     -8.93144570333608      0.34768053155667
  C   8.47275834236816     -1.27803880222737      0.23342210411245
  C   8.34670527473727     -2.68379852088061      0.27148679920608
  C   7.06578565247640     -3.27908179092914      0.25550282918257
  C   6.93130424463119     -4.68891647735036      0.26972876414219
  C   8.83559811329154      2.94580889813420     -0.09308628059315
  C   8.70955784159008      1.53630633106667      0.07396114280846
  C   7.43328531353099      0.94943665362512      0.12554890770236
  C   7.30753292651720     -0.46527085260402      0.22477290157750
  C   9.20081718800200      7.17708674866245     -0.43299625674162
  C   9.14558114812957      5.78589409443426     -0.39817111734524
  C   7.85075035864397      5.13014967627253     -0.63305788014211
  C   7.68943863120002      3.72150841369607     -0.28868394208685
  C   8.16581354971187      9.43775226880117     -0.39604229652069
  C   8.04820540208946      8.00294283187212     -0.44654398682597
  C   10.93392231845312     -1.50479397033972      0.28585863787417
  C   10.80191484194527     -2.87653159890156      0.33333461092921
  C   9.52208326588797     -3.51181783978676      0.32016994866713
  C   9.37840721658503     -4.89474378088624      0.35351190643755
  C   11.28043063804942      2.72158167388606      0.04872210638732
  C   11.17558650881063      1.34741102457402      0.14675539929776
  C   9.87845588949619      0.72152994665072      0.15658624972050
  C   9.76076478445873     -0.66961954122672      0.22513616673787
  C   10.25923750639578      4.95299035294343     -0.18996529156232
  C   10.13892545241549      3.56060074621007     -0.08756081818303
  C   12.33636878529914      0.49718114790193      0.23253226842501
  C   12.22312143240557     -0.85677531838159      0.29583501182952
  H   -9.78277833545388     -1.54875477127621      0.08337954314301
  H   -9.14451946240106      5.11723092049354      0.20615723207859
  H   -10.56195101177034      3.11576546473156      0.36383869179310
  H   -10.81437942070797      0.68200281759291      0.31134685619350
  H   -7.68659727970013     -6.02388666633752      0.00601501932854
  H   -8.73479424197039     -3.79676286538882      0.05491971724943
  H   -6.30110775904757      9.16755205754597      0.02359111629119
  H   -7.72409569100413      7.14549809861518      0.11364409754295
  H   -4.64955008446357     -9.69365999567351     -0.01895484305749
  H   -6.65959813004625     -8.26208819211139      0.00061559599974
  H   -2.65729245735037     12.20735693837165     -0.11163916745587
  H   -4.88941868230719     11.18029797872544     -0.05159833874848
  H   -2.15843508478718     -9.92355607641542     -0.11241961863906
  H   -0.21500969652218     11.97599030634388     -0.16726077687097
  H   0.38326868455114     -9.57030383016189     -1.37996611670750
  H   2.23885574969134     11.76070214582068     -0.19685497692461
  H   2.70925921032398    -10.35378047640672      0.05520002896033
  H   4.69390913123866     11.54234338806727     -0.24909354479393
  H   5.17491576702963    -10.58133494812252      0.29951545704235
  H   7.16195494489173     11.31335081770327     -0.31212259821909
  H   8.83016287452724     -7.53634978082749      0.41762671416668
  H   7.41086359801071     -9.55012758406117      0.42110346029788
  H   10.16991327746883      7.66001597413663     -0.37044521209798
  H   9.15676672955829      9.87571554707582     -0.42668926647185
  H   11.68868802470243     -3.49815564308629      0.37791656545326
  H   10.26137375745706     -5.52192679676973      0.39511507160092
  H   12.26223295684198      3.18106585995458      0.05534624521625
  H   11.24181737468637      5.40325958640373     -0.10340789897691
  H   13.31385139329343      0.96568206325795      0.23735495259137
  H   13.10841241728976     -1.47959768368838      0.35217679378559
  O   4.81204775602924     -0.09064243531335      2.08556721748275
  H   4.79340304403395     -0.98080076361570      2.49878144137807
  O   -7.23530770526554      0.86165701544397      2.13779295418977
  H   -7.35757891887951     -0.04676432157485      2.48737925573151
  O   0.23198619420115    -10.39392041914961      0.43030637038567
  H   0.23354047778656    -10.18490869134605      1.38863739434510
  O   1.85343669021607      6.54112974748815      2.03046423298179
  H   1.85808648938305      5.63959872468956      2.41684962501120
  O   -3.35795558122633     -1.92579637181012     -1.86882549672395
  O   7.19686137516124      5.51540938588556     -1.91103861852418
