184
Coordinates from ORCA-job input-ccc-4epoxy-2-geom
  C   -8.66427791001818      0.20846065020324     -0.01923694386785
  C   -8.77374246871008     -1.17442388311566     -0.02484908776944
  C   -8.28933131805785      4.44309956896613     -0.03344685984023
  C   -8.41788421696932      3.06532488604605     -0.01448290559478
  C   -9.70705665591856      2.41972064860529     -0.06930906107995
  C   -9.82485303375593      1.06548656910096     -0.06363507793596
  C   -6.59738089858962     -4.23581769161573      0.01147726723243
  C   -6.68898927660768     -5.65943260692364      0.03089394824523
  C   -6.21866647878049      0.00239265916132      0.04853897295060
  C   -6.33659670792901     -1.40987660686275      0.02154807867297
  C   -7.63081593869802     -2.01365737143167     -0.00067868434965
  C   -7.73149736066038     -3.41985780186669      0.00215538324786
  C   -5.85202101314551      4.25515383255454      0.14860327168126
  C   -5.97524192736208      2.83421954528672      0.14033900255256
  C   -7.24427775326262      2.23578530917366      0.05451313187551
  C   -7.37074255494918      0.81979224855109      0.03080249415019
  C   -5.43652035057097      8.49187204138136     -0.00625896663309
  C   -5.60100366567500      7.07366164116045      0.06503913156591
  C   -6.86367791340448      6.47236244810890      0.00872058868788
  C   -7.01794223457945      5.07373537618816      0.03472158128624
  C   -4.54311907874247     -8.67999481511095      0.08154348139990
  C   -4.13725523360639     -4.44662857711710     -0.01520735531292
  C   -4.25611639616675     -5.86432951675225      0.00250352133190
  C   -5.56710776061697     -6.46088406304426      0.03557638923223
  C   -5.65610090712240     -7.90110135274396      0.07302977275889
  C   -3.76526723696477     -0.20590406558932      0.08782597257412
  C   -3.88426789611663     -1.62388221844498      0.02538268088395
  C   -5.17722978032443     -2.22440804992083      0.01639860746664
  C   -5.29669440895497     -3.63286537010156      0.00338758395558
  C   -3.43866067188660      4.01768014833175      0.56464484863175
  C   -3.52984187001778      2.58230524831178      0.31295558540199
  C   -4.80524421226357      2.00836807489032      0.18055709342417
  C   -4.92842237728579      0.60190014744889      0.10169122807529
  C   -3.00426000988287      8.26960037991288      0.03074051211258
  C   -3.12877605219036      6.86019259891791      0.17428706617154
  C   -4.43668927934461      6.24964921172113      0.19640068913574
  C   -4.59368397108096      4.86578936207761      0.27639146722653
  C   -2.80269228594218     11.09338550552305     -0.14188636948201
  C   -4.03141219681493     10.51773276039827     -0.09498089950843
  C   -4.19330489465519      9.08400975308317     -0.01822630596455
  C   -2.08311506587079     -8.88495566665901      0.05297772646910
  C   -1.69337002299865     -4.65942338123236     -0.10697917576495
  C   -1.81721790134424     -6.07359716165034     -0.06285968010507
  C   -3.10877345702338     -6.66877497422433     -0.00533887474299
  C   -3.22002254545918     -8.10381196530299      0.04341079760307
  C   -1.32034822902536     -0.41790331148068      0.04745310278594
  C   -1.44103029813728     -1.82329476767442     -0.05286268331274
  C   -2.73039185928920     -2.42839196047048     -0.02776975571366
  C   -2.85084527348693     -3.84789660493201     -0.05349727529514
  C   -0.91062779683544      3.80184435354536      0.29911325582074
  C   -1.06314331739142      2.41746161601823      0.25649973802415
  C   -2.37127913629882      1.80597231645382      0.25701732924992
  C   -2.48536298695395      0.39494663047368      0.13255597597173
  C   -0.56823559730324      8.05683483501849     -0.08765948806003
  C   -0.69522289947175      6.65037088175384      0.06286381734592
  C   -1.96773118336096      6.08383445427673      0.23780078685299
  C   -2.06276558320564      4.66028639257647      0.54799448685922
  C   -0.35041266851130     10.86924461923799     -0.21209881564557
  C   -1.59608750904185     10.29922447194786     -0.14197081227757
  C   -1.73214927421336      8.86036153497433     -0.06450179978627
  C   0.38122432310542     -9.09298673594228      0.01551962205722
  C   0.72148189492978     -4.88742373847200     -0.28105743645806
  C   0.62082351771853     -6.29132708438054     -0.15443868438269
  C   -0.65929936755965     -6.88684340169607     -0.06755706432815
  C   -0.77727167500736     -8.31276003709125      0.00298823073691
  C   1.11842587496679     -0.62248510770811     -0.05936082445701
  C   0.97605190877167     -2.01033469602590     -0.22906673190551
  C   -0.27468078739705     -2.62707408724596     -0.18566804869578
  C   -0.39950779331877     -4.06675648783251     -0.21264731134015
  C   1.50584288841763      3.59582516856196      0.10005289614660
  C   1.37660479937846      2.18857273818205      0.10592086193431
  C   0.09250795226755      1.59695672065312      0.14313672151126
  C   -0.03585564897240      0.18608640615547      0.05538669341150
  C   1.84741551357273      7.81541105482458     -0.26853368220753
  C   1.74009159849644      6.41249689065322     -0.06587567261730
  C   0.47163001667568      5.82588444298033      0.06783019441487
  C   0.34959395792844      4.40591004631338      0.15380576181311
  C   2.08842009522714     10.69532837095029     -0.31507116640668
  C   0.85419466639770     10.08877173894631     -0.28339503710725
  C   0.72677320257488      8.63772421457276     -0.24621228001592
  C   2.84797429253004     -9.30852029833338      0.00097085910602
  C   3.23251759070438     -5.10957090809177     -0.29598027622902
  C   3.08852389696428     -6.50597281095621     -0.17033963653709
  C   1.79185749199316     -7.10016570036547     -0.13376529781519
  C   1.66743678203373     -8.51269332153947     -0.03988743932153
  C   3.59154921005258     -0.84304344648014     -0.06657491834339
  C   3.48657468501425     -2.23022598710778     -0.24028752124718
  C   2.17023099250611     -2.79683067446832     -0.52142047186833
  C   2.03581449823448     -4.31158381256632     -0.54849025725467
  C   3.95284432682788      3.37813240748555      0.10940873699558
  C   3.83335031850787      1.97179524459611      0.11018390477924
  C   2.54102300274317      1.36477011858733      0.06151233198316
  C   2.41727425967512     -0.02437540170920     -0.02635904500619
  C   4.35693814134132      7.59153558601143     -0.25322601557866
  C   4.21658542402410      6.19467314986753     -0.05325901691739
  C   2.91437760411188      5.59662264806325     -0.02741407639613
  C   2.79233738083734      4.20285564446460      0.05381293286020
  C   4.63020085105926     10.46882848947502     -0.30591013175965
  C   3.30117654178679      9.94625804483124     -0.58753870732181
  C   3.16239991887746      8.36457713802761     -0.56765294494603
  C   5.31108616065901     -9.54114066129191      0.01536074309961
  C   5.65277304625419     -5.30701953726802     -0.15242584424167
  C   5.52517233202699     -6.71713458775261     -0.10925926557031
  C   4.24817513405429     -7.31598235849452     -0.09759333738433
  C   4.10930046423453     -8.74306835215708     -0.02478458411533
  C   6.02904668272418     -1.06716327866030      0.02771969119417
  C   5.90033443169022     -2.47058087966393     -0.08511731549737
  C   4.61301625746113     -3.05775206179672     -0.20983250176488
  C   4.48258279485563     -4.49619921448065     -0.24086350367400
  C   6.36781209790553      3.15722323211145      0.32493844896923
  C   6.27544830776530      1.76574336699501      0.26932770322860
  C   4.99378877647719      1.16261252317399      0.14651417759464
  C   4.87200861138256     -0.24867369647008      0.04857587199639
  C   6.77178803485764      7.40743254385507     -0.03574345061306
  C   6.65372465997665      6.00162157428035      0.10768367229708
  C   5.36064683334701      5.39373086757995      0.09446087470719
  C   5.23388514014765      3.97306018543931      0.17674349445843
  C   7.06000861787177     10.22145293384847     -0.13176559262877
  C   5.72932049679447      9.65763222924616     -0.24394781709221
  C   5.60692580540562      8.20571323997467     -0.21029628282168
  C   8.10688168829684     -5.52514892399861     -0.09688415660577
  C   7.95377326403046     -6.93944014764243     -0.07561536478975
  C   6.70724477091945     -7.53458615304642     -0.06563689490673
  C   6.54315742376937     -8.96735782986345     -0.00873311145958
  C   8.47971145320993     -1.28603084570831      0.04121845913280
  C   8.34625427785361     -2.70080883758118     -0.03959624063715
  C   7.06787095414965     -3.29483423724441     -0.08068523274183
  C   6.93705608846251     -4.70558347331914     -0.11449197373347
  C   8.90241811657520      2.92203660026364      0.59598269533609
  C   8.74077160172910      1.49571575137118      0.31902054442832
  C   7.45543652823136      0.93350659850100      0.25953217258293
  C   7.32141170007982     -0.46851357879094      0.11312052602138
  C   9.19385068429352      7.19288785061551      0.13338499500060
  C   9.08851255031216      5.78507827845918      0.25636287678034
  C   7.80459774154408      5.21780863542999      0.29538979548242
  C   7.65228290742123      3.79857250475186      0.58868277809604
  C   8.16451082609238      9.44162535389841     -0.03535636078796
  C   8.06801675518209      7.99951772771620      0.01921572002522
  C   10.93269225527964     -1.52225992677151     -0.04299762948199
  C   10.79648236893142     -2.89411786234527     -0.08993413044045
  C   9.51618621759729     -3.52283949827467     -0.07712690045623
  C   9.37317803898485     -4.91543189851242     -0.09726871809932
  C   11.32104179215436      2.71141360928995      0.15756722175555
  C   11.19680091938110      1.33824851685894      0.11653520200204
  C   9.88703316141249      0.70980723152351      0.15605822361340
  C   9.76347336048273     -0.69121186648268      0.04705049468964
  C   10.25548399591897      4.94370557951638      0.26422013215399
  C   10.19481776978115      3.57144994391054      0.31478081798413
  C   12.34623458676577      0.47685592643729     -0.00371011281990
  C   12.22413112503734     -0.87596463886832     -0.06962493796315
  H   -9.75657729723214     -1.63048023331240     -0.05227681464728
  H   -9.17700844474436      5.06131519460424     -0.10094821669701
  H   -10.59026737218782      3.04657001916452     -0.11241733886072
  H   -10.80305026799631      0.60016350393020     -0.09986561466781
  H   -7.67194443900245     -6.11583753908095      0.04716540435902
  H   -8.71403588793834     -3.87737478743106     -0.00208665305558
  H   -6.32337431888840      9.11211270466280     -0.06670669751026
  H   -7.74492652191315      7.09868764451953     -0.06868100512274
  H   -4.62922380780673     -9.75995722290107      0.11485197004042
  H   -6.64163404429342     -8.35151253158393      0.09850289925426
  H   -2.70334552037478     12.17140326156229     -0.19418553172339
  H   -4.92507074347241     11.13082215804524     -0.11261892475227
  H   -2.17641620306034     -9.96393359936686      0.09558658781898
  H   -0.25983921456126     11.94863535082708     -0.24605516826814
  H   0.29369334559069    -10.17164873161507      0.07463495424878
  H   2.16649074100492     11.76456249833556     -0.15399502959640
  H   2.74694348550727    -10.38604360572744      0.05952187058286
  H   4.74291584873787     11.53791963452249     -0.16527166927405
  H   5.20822787901317    -10.61902606470516      0.06365282573837
  H   7.15292613214680     11.30101192170508     -0.15066281117323
  H   8.84261354032536     -7.55930275469204     -0.05451354971331
  H   7.43519944633068     -9.58236866660508      0.01987273710562
  H   10.17704654135894      7.64896043916527      0.13615135493562
  H   9.14956309724614      9.89027670709092      0.01909151202732
  H   11.68114500655789     -3.51848526642774     -0.13737824088560
  H   10.25947322522728     -5.53917067358915     -0.10791982536463
  H   12.30401725072474      3.15868816705946      0.06201934427009
  H   11.22112815152162      5.42390704738362      0.14938352321651
  H   13.32664533180102      0.93809143142105     -0.03471239372225
  H   13.10587719355917     -1.50139482227679     -0.14745207956666
  O   8.27660429697641      3.35844787574681      1.87867565297079
  O   -2.75027870754385      4.36629075488428      1.84738514628803
  O   2.09904084178445     -3.52823065580169     -1.82581145941058
  O   3.23483648067861      9.11706091861960     -1.83628237330511
