185
Coordinates from ORCA-job input-ccc-1oh-3epoxy-2-geom
  C   -8.63319239014873      0.20226519567155      0.30115867304187
  C   -8.74286528592076     -1.17212303710170      0.31358694860055
  C   -8.24125494281302      4.42551718499867      0.36387458853674
  C   -8.37840297931361      3.05191915517068      0.32908199824834
  C   -9.66657448297668      2.41177397724801      0.44288786167141
  C   -9.78722264565216      1.05908603954862      0.43016191489283
  C   -6.57709895051050     -4.23673378004255      0.12466599973772
  C   -6.67566591469390     -5.64707241874848      0.22597732963870
  C   -6.18867908172566      0.00019097129338      0.02629331475732
  C   -6.31110187163910     -1.41536824984985      0.03189161350469
  C   -7.60168545845878     -2.01578842990702      0.19320389615562
  C   -7.70780614754013     -3.40800148977443      0.24473829032878
  C   -5.80700551263887      4.23517889742181      0.10895511964209
  C   -5.93839491198027      2.82337570361390      0.06689924182909
  C   -7.21509440416734      2.22000724967892      0.18381895209608
  C   -7.33866079493135      0.81680377868646      0.16657809352816
  C   -5.40619546818384      8.46811250721251      0.32957544124888
  C   -5.56380724015887      7.05658137627830      0.24389125700623
  C   -6.82295991996350      6.44707352411678      0.32282904203142
  C   -6.96887249207242      5.05328788090346      0.26416783073382
  C   -4.54384533554555     -8.69984172283718      0.13543758660185
  C   -4.15252174261136     -4.47756266638610     -0.25318910843888
  C   -4.30486770844269     -5.86382852540445     -0.21333128858002
  C   -5.56036828295438     -6.45740156547573      0.08418874665608
  C   -5.64018003445582     -7.90108535743701      0.21866422615929
  C   -3.74754658735822     -0.21643712137742     -0.24953591608394
  C   -3.87594548286011     -1.63263710821071     -0.24452279053192
  C   -5.16732544910237     -2.23267517981689     -0.10513306516159
  C   -5.29211659002788     -3.64300701883962     -0.08337704143381
  C   -3.37004611402225      4.02334748652483     -0.15665766451040
  C   -3.50267758189424      2.61548255429941     -0.20360562572693
  C   -4.78455988618103      2.00833936529915     -0.08355278260489
  C   -4.90851433508265      0.60164530624396     -0.10885499607208
  C   -2.98338295624012      8.25362177564070      0.12770281664636
  C   -3.11470774302148      6.84466328370475      0.01778036229479
  C   -4.39905371749150      6.24219782892121      0.08336575260755
  C   -4.53099372501939      4.83804700571543      0.00852854952027
  C   -2.77206794745137     11.06972926587474      0.36252552657394
  C   -4.00131307202814     10.49358441052488      0.38607385077133
  C   -4.16269996994830      9.06373005540953      0.27996853053341
  C   -2.08948071699648     -8.89726439103782     -0.10557628310280
  C   -1.69138431523138     -4.64615582203292     -0.44888895502971
  C   -1.78764307385590     -6.09079109627676     -0.62965087095858
  C   -3.17707640498388     -6.73573490779328     -0.51511936018050
  C   -3.23534194306785     -8.16146755946129     -0.14412230109635
  C   -1.31751762259178     -0.43660837594227     -0.45790817824361
  C   -1.44308697781172     -1.84880343004294     -0.41007545447491
  C   -2.72886682080530     -2.44713708127646     -0.34607131138159
  C   -2.84422976289008     -3.87126323633411     -0.37780303955536
  C   -0.94227805116272      3.80795786076471     -0.44635773239528
  C   -1.09803701528792      2.42037299181711     -0.53521746576622
  C   -2.35104004508021      1.80833678007975     -0.37065604797851
  C   -2.47583399572388      0.38166093696714     -0.37796278585788
  C   -0.54910285609160      8.04697133041739     -0.04525487618243
  C   -0.67616379336175      6.63811573290874     -0.17962818179701
  C   -1.95818282791570      6.03780862809505     -0.14561071721004
  C   -2.09043931155671      4.62268161663520     -0.25559165098327
  C   -0.32090027643663     10.85143365007136      0.23098933336171
  C   -1.57352484154338     10.27753134784113      0.22881369763152
  C   -1.70993227675985      8.84952817497610      0.09924582899594
  C   0.37853076186796     -9.10466748297113     -0.06983928512176
  C   0.75439688615617     -4.87628743797589     -0.32439312493711
  C   0.63170113703118     -6.30847101813969     -0.26193225885982
  C   -0.62004522020543     -6.91642549442371     -0.35136657968218
  C   -0.76720658702871     -8.31928747346782     -0.21015373575298
  C   1.11994721013731     -0.63397625151877     -0.52551468324581
  C   1.00538038261505     -2.05130348566846     -0.42345373960065
  C   -0.27805393567680     -2.65108923295089     -0.41352917298540
  C   -0.40204958489751     -4.06644355799544     -0.39362812151772
  C   1.52241477409230      3.64513652464270     -0.57103419248355
  C   1.43150376650101      2.21288427060733     -0.84490645883518
  C   0.05163355402181      1.57331305614356     -0.84054198423386
  C   -0.03715092798456      0.13814414822523     -0.58700514643910
  C   1.89566686544348      7.85213980552872     -0.17404889102190
  C   1.76937849231985      6.43134688865969     -0.30733832349087
  C   0.48877446955797      5.83174237911347     -0.32295442723024
  C   0.36733150223457      4.41836228941433     -0.47486240009444
  C   2.13287679492816     10.64312783528206      0.15013293461801
  C   0.86285731000322     10.06776155606122      0.10927381350325
  C   0.73851185630064      8.64712962404614     -0.04322641575760
  C   2.84146626443428     -9.31386325055804      0.07543449466303
  C   3.19716463518584     -5.08607989039801     -0.14144412266158
  C   3.07476576283647     -6.50544442526204     -0.07016996646367
  C   1.79514476983403     -7.10890958650505     -0.12083856987783
  C   1.66760890325952     -8.52786297786504     -0.04267068404382
  C   3.57861090326950     -0.84425198112429     -0.32529127495855
  C   3.44899612905431     -2.26065114391707     -0.26257396870014
  C   2.16102108742036     -2.86210138648288     -0.32808671447580
  C   2.03260571284785     -4.27663579634557     -0.26840501182470
  C   3.96269709523970      3.39330039689059     -0.41927246921834
  C   3.84080578276437      1.96790983045352     -0.40181470813052
  C   2.58344840515829      1.36062092562915     -0.56188693706158
  C   2.42906595617317     -0.02577937896592     -0.49557228097938
  C   4.35339337980790      7.65957621797520     -0.30280516929182
  C   4.22920986167111      6.22025422786710     -0.40497167408370
  C   2.93163603479847      5.62940948807475     -0.38874457818153
  C   2.80351777193679      4.21859700059766     -0.46342352235058
  C   4.59062533516170     10.43800341510316      0.12303363698370
  C   3.29953969545634      9.86198550390049      0.03549294362651
  C   3.17936794456627      8.44922606384450     -0.15096360315576
  C   5.29984489137569     -9.52444300853238      0.23686310081729
  C   5.63511217293298     -5.29593813170414      0.05775065453650
  C   5.51158106774407     -6.70574773968197      0.11092012205945
  C   4.23195214919046     -7.30859035503322      0.05253703842445
  C   4.10151170909130     -8.73428631978367      0.12067440773282
  C   6.01350658734181     -1.06015105816753     -0.04081581773850
  C   5.88285696073856     -2.46624491224623     -0.01469021177475
  C   4.59682410245044     -3.06823567661783     -0.12196350313479
  C   4.47095213255097     -4.48485163660485     -0.07099874663721
  C   6.40491280320254      3.17491924583455     -0.23690518443328
  C   6.28251276492055      1.76991233290959     -0.13153795063852
  C   4.99141799725726      1.16358027560675     -0.24208157167754
  C   4.85913368600992     -0.24536194826182     -0.20738725599198
  C   6.80998608038587      7.50087334904061     -0.54604793059816
  C   6.67709288764174      5.97717972745847     -0.62222700699714
  C   5.34942724874919      5.39734269154416     -0.44782849363131
  C   5.23722682138381      3.98690101798991     -0.36724124715755
  C   7.06297278160788     10.23410319099143      0.11657969360707
  C   5.73330478882291      9.66372702152525     -0.00685121919021
  C   5.60322832286667      8.27459401373310     -0.27066676974494
  C   8.07761498092207     -5.50390785207993      0.25877765438277
  C   7.93634861551680     -6.90428700348051      0.29611488334546
  C   6.68480897454179     -7.51316476454284      0.23124201269143
  C   6.53008905862768     -8.94244616103860      0.28781260331820
  C   8.41989606526942     -1.27474808472538      0.32173917866923
  C   8.30959222620949     -2.66913968488660      0.26666893926594
  C   7.03690783187744     -3.27893279204490      0.12279391488335
  C   6.91331622613416     -4.69229793324914      0.14084900990147
  C   8.84880632827005      2.96921730562655      0.01355333037827
  C   8.71884743151203      1.56387534894333      0.16286877884644
  C   7.42370770840740      0.96041388276172      0.07123550464401
  C   7.29368093679659     -0.46085528021077      0.12776006201273
  C   9.20995000581396      7.22783806223353     -0.12209925236102
  C   9.11443812442199      5.78582234986471     -0.18662721021266
  C   7.84856256263821      5.16651987231056     -0.31406283476333
  C   7.70122213711957      3.78180901052838     -0.17640813590706
  C   8.18762475235340      9.47344344651510      0.05729501648968
  C   8.12809637317251      8.05293483530617     -0.18364758112208
  C   10.91764449076066     -1.50784227301913      0.47228889491048
  C   10.77803697576670     -2.85598656969558      0.37443041647119
  C   9.48566763423860     -3.49903902060029      0.34133481449550
  C   9.35257143955083     -4.87177412872282      0.33320730593959
  C   11.27604860871211      2.74060483353113      0.20279674674315
  C   11.14628074599866      1.36249066162022      0.35405032005437
  C   9.85900020823225      0.78396151542641      0.37736197606064
  C   9.70821572965284     -0.65714372732200      0.78693503613321
  C   10.24465651436719      4.98009546005963     -0.02170849473377
  C   10.13872766120338      3.57293288338200      0.06220342454266
  C   12.31206301608922      0.49961314543491      0.44126491912068
  C   12.20162474594054     -0.85134544302647      0.46337456133996
  H   -9.71857321589581     -1.63061962604452      0.42471584360074
  H   -9.12139401102998      5.04779238101878      0.47709237397597
  H   -10.54314491750589      3.04116224944401      0.54405199240086
  H   -10.76151631863989      0.59310047927816      0.52128766265687
  H   -7.64429314680601     -6.09412694163503      0.41614593579603
  H   -8.68140106047815     -3.86172373444331      0.38851359893058
  H   -6.29006831657639      9.08440192570069      0.44618021344659
  H   -7.70420641878832      7.06663392290545      0.44201043100154
  H   -4.63359328716517     -9.76900661855257      0.29143996479951
  H   -6.61250097026941     -8.33339380295273      0.42386374149165
  H   -2.66655176133077     12.14505332476982      0.44780242804392
  H   -4.89213154426638     11.10178280248753      0.49200205573197
  H   -2.15189992199759     -9.96158493299567      0.09342976459526
  H   -0.22403706945000     11.92590766957546      0.33458513167358
  H   0.27966571733902    -10.17903147844879      0.03295850922317
  H   2.22737714446235     11.71462220479780      0.28229424940591
  H   2.74742061906922    -10.39202636259509      0.13179874645201
  H   4.68056128065350     11.50408717872585      0.29532494260557
  H   5.20045677253998    -10.60267462332103      0.28395278620955
  H   7.13764322572252     11.30077297143120      0.29278573351009
  H   8.82306518273738     -7.52144410780168      0.38392071184480
  H   7.42191677046565     -9.55212655877261      0.37555338296606
  H   10.18970660703215      7.65303072023189      0.06632589578816
  H   9.16166640867347      9.92586421689387      0.20579530000056
  H   11.65961210794655     -3.48370211809946      0.29269745791029
  H   10.23881975560638     -5.49442251751227      0.38267327277249
  H   12.26263072633101      3.18893320370948      0.19731839698209
  H   11.22178151250757      5.44133216868077      0.06169220279455
  H   13.28933578033568      0.96837083183560      0.43434261414218
  H   13.09077163962910     -1.47292079563633      0.44842464677140
  O   9.63564676364410     -0.55631229204687      2.25043113698227
  H   9.57777892989278     -1.45473865961547      2.64006571491876
  O   6.80229792974546      6.80478190928763     -1.86740338491185
  O   0.73338689170813      1.90222775736703     -2.13322494888097
  O   -2.55599872413564     -6.49105817726052     -1.84976675989529
