188
Coordinates from ORCA-job input-ccc-4oh-1-geom
  C   -8.63687057352878      0.18746633136654     -0.16459807863350
  C   -8.75188618596380     -1.18812896543708     -0.17161672132516
  C   -8.23563785333786      4.41548941196747     -0.31924085034454
  C   -8.37229064621911      3.03567994809154     -0.24696204954955
  C   -9.66173386579520      2.39621934613233     -0.35858530216452
  C   -9.78570213240751      1.04438423781332     -0.32273707276553
  C   -6.58629622887856     -4.24225816064119      0.02270371768038
  C   -6.67207925978562     -5.66011399715786     -0.04642572245002
  C   -6.20557346423397     -0.00569653041271      0.16437798689647
  C   -6.32689970242967     -1.43054942741239      0.16097677660145
  C   -7.61653568494323     -2.02955308412464     -0.03372565958732
  C   -7.71997791406340     -3.42689758112230     -0.07380150114338
  C   -5.81288429946690      4.23283013872074     -0.04189406256573
  C   -5.94142880423736      2.82477534752266      0.03546083378304
  C   -7.21416732191931      2.21773305345902     -0.06958801484798
  C   -7.33967815876051      0.79739178020691     -0.01358851834649
  C   -5.41220198696904      8.46399501659493     -0.39839339782001
  C   -5.57007864843228      7.05378019464560     -0.27016896071530
  C   -6.82783783780510      6.44425146394202     -0.32728078682638
  C   -6.97067590810466      5.04390461424073     -0.22797713099940
  C   -4.51209553799311     -8.66700967437541     -0.07816606380277
  C   -4.12945452225064     -4.45331641836754      0.23181228122439
  C   -4.24168294385950     -5.84580581132078      0.10929249423868
  C   -5.54559289264674     -6.45406225230207      0.00138759401425
  C   -5.62741489852800     -7.89215784764528     -0.07528841198474
  C   -3.76453377242582     -0.18293445717123      0.47077733733844
  C   -3.91335710541140     -1.64133145429374      0.80476956678689
  C   -5.20045939191839     -2.24487889443152      0.31799751167619
  C   -5.30021267349558     -3.63422581755998      0.20563402699548
  C   -3.38183571653651      4.03758955025017      0.24750187303778
  C   -3.50473300302369      2.61228894092362      0.34936495313701
  C   -4.78422426513261      2.01386133426370      0.21556327378086
  C   -4.91047703350801      0.60374647918197      0.29627888398473
  C   -2.98929030566236      8.25470701381782     -0.20936649771537
  C   -3.12435503916109      6.84661166866808     -0.06241283331471
  C   -4.40321153120398      6.24548153384942     -0.08845173861704
  C   -4.52850635601197      4.83649147222708      0.04764994410831
  C   -2.77254567663256     11.06480685604590     -0.49559095113178
  C   -4.00361224540147     10.48944667242520     -0.50751497276036
  C   -4.16765107686492      9.06212985804669     -0.37075139156761
  C   -2.04837705585858     -8.87102422994066     -0.06674572666796
  C   -1.67316006221856     -4.65701388480497      0.19423342618365
  C   -1.79476503394816     -6.06686545342447      0.09315071255912
  C   -3.07716525957760     -6.66371588745335      0.06736274607260
  C   -3.19169879868199     -8.08518237401419     -0.02362982099377
  C   -1.31854712490291     -0.42750104748128      0.54571991090843
  C   -1.44241935516886     -1.83810808466934      0.44745085768025
  C   -2.69942694775541     -2.46237653160351      0.46633828723617
  C   -2.83296931624197     -3.84217593848890      0.30795625306323
  C   -0.94164466454484      3.84549490555647      0.47693570268690
  C   -1.07727455006137      2.43177275359769      0.95898917097975
  C   -2.37574017635388      1.80777216853460      0.54664675040084
  C   -2.49369821751117      0.40507850588318      0.54598621962604
  C   -0.55481093907034      8.04710497777083     -0.05812288123654
  C   -0.68548838601038      6.63870367273955      0.09464852828654
  C   -1.96568358144397      6.04169718148452      0.10234807580600
  C   -2.09209856481475      4.63240324271648      0.28586063228466
  C   -0.31729150804164     10.84469806500664     -0.35449692711376
  C   -1.57451344186883     10.27415579828140     -0.34959013027494
  C   -1.71512206136739      8.84955114350249     -0.20199961662257
  C   0.41295764090181     -9.08546594622581     -0.10088126278111
  C   0.77275650407121     -4.86092996828812      0.07003541305298
  C   0.65043781644052     -6.27719509608503      0.00096794858823
  C   -0.62916649995942     -6.87476708754794      0.01689907718021
  C   -0.75254474844933     -8.29840992274180     -0.04994739673485
  C   1.12338789797933     -0.63260012737326      0.34273069363560
  C   1.00305325991872     -2.04314910378861      0.24755768187454
  C   -0.27399383669576     -2.64771958200598      0.29323538814904
  C   -0.39333217649031     -4.05297103474437      0.18966617999815
  C   1.49941267860904      3.60662967283694      0.43683728349067
  C   1.35993596967550      2.18286691022766      0.46954277052197
  C   0.10455599077907      1.58256974776762      0.58800357120310
  C   -0.04315111157353      0.18225849913504      0.50535862595993
  C   1.88647606460601      7.83324760898124      0.04051259105355
  C   1.75833573851563      6.41972897850916      0.18390643483012
  C   0.47276483381162      5.82796800075045      0.22172053928681
  C   0.33428269108966      4.42170019978404      0.39420492834638
  C   2.14018931184086     10.62860350656338     -0.25611955105787
  C   0.86325657393763     10.05868537073613     -0.22736492553960
  C   0.73178857258467      8.63847108081732     -0.07638128974082
  C   2.87081359991069     -9.30023409007438     -0.15677585970689
  C   3.22045088004118     -5.06314403967881     -0.10728987769029
  C   3.09349978925752     -6.48662415137109     -0.12477559803489
  C   1.81666707906108     -7.08246401518964     -0.07820019885286
  C   1.68949485279638     -8.51033507955358     -0.11178744571043
  C   3.56584323657073     -0.84113146362821      0.14060646243258
  C   3.44467984560721     -2.24418043294630      0.03989602107916
  C   2.16388576427558     -2.84858060999698      0.10255390907957
  C   2.04688206642199     -4.25731942451637      0.01943159102068
  C   3.94218780008858      3.38045341321363      0.35057057451744
  C   3.81222431445893      1.97314455546527      0.31139292745878
  C   2.52392416312760      1.37455279103072      0.34988476918282
  C   2.40012224109060     -0.03318893829906      0.28260312270396
  C   4.33268909846047      7.61597310304434      0.09231227162452
  C   4.21023271496970      6.19675441434895      0.23692360113395
  C   2.91285113391959      5.60822266948998      0.27405662602718
  C   2.77302624625429      4.19526900200768      0.36529392187544
  C   4.59799638196310     10.41022520487081     -0.20720225927471
  C   3.30126444298498      9.84123695681794     -0.15319418554957
  C   3.17511950146812      8.42185196886755     -0.00084103285265
  C   5.33045640074034     -9.52099850947974     -0.22039063702424
  C   5.66044644284027     -5.27816952637375     -0.28404334429983
  C   5.53198050272300     -6.69851581259474     -0.24103022434797
  C   4.25957837929513     -7.29455521176815     -0.18304498893858
  C   4.12836292099063     -8.72589657131053     -0.18441865231172
  C   6.00098307704511     -1.05000947646974     -0.07656139779123
  C   5.86049240003940     -2.42385185202318     -0.25470560011428
  C   4.60607580844463     -3.04240192187281     -0.14898399155755
  C   4.48381848788984     -4.46373985640774     -0.20104851820484
  C   6.36979002391972      3.14869035153880      0.37984391822763
  C   6.25653316287604      1.76450305216307      0.24415659369210
  C   4.96992008163867      1.16357595468354      0.21603824447760
  C   4.84488779750640     -0.24261906439765      0.10222320201314
  C   6.77472577932992      7.39877939984185      0.09043447164564
  C   6.65841236453741      5.98700430803075      0.25727684068780
  C   5.35835154636079      5.39265536727574      0.31537647141361
  C   5.22800003741704      3.97071863724491      0.36478839576634
  C   7.05866269650303     10.19954773814980     -0.20603123526623
  C   5.73868758722588      9.62752587487370     -0.13125984211483
  C   5.61853554244650      8.20528721549174      0.02055266086590
  C   8.09040619460522     -5.48795674089527     -0.39399675272070
  C   7.95796574762363     -6.90045422325042     -0.33898833708404
  C   6.71212361696469     -7.50759245928970     -0.28201341738644
  C   6.55999919417414     -8.94157676065527     -0.26186102857568
  C   8.47915882214709     -1.26737903062901     -0.18465066425391
  C   8.35995108228674     -2.63125943317122     -0.35211890965055
  C   7.03518731918746     -3.23538524101183     -0.72167268192917
  C   6.92021440699637     -4.69443453832711     -0.38885614539084
  C   8.86524998447862      2.92092378323742      0.28702165170630
  C   8.73567030026965      1.55605657489490      0.13598632633709
  C   7.42735747927121      0.93234287068082      0.11718288609321
  C   7.30360470638975     -0.43183112918578     -0.06092470524110
  C   9.19960348734680      7.17702677213859      0.05265332480201
  C   9.08844303063925      5.77450767020304      0.21621878066995
  C   7.80801858822924      5.20384065117365      0.34311877753977
  C   7.69619247746848      3.75475116331146      0.72977416864140
  C   8.17109836244402      9.41933488271721     -0.14538484549916
  C   8.07304956526655      7.98917520542740      0.00293533777752
  C   10.94128095389898     -1.48815113818169     -0.21942971167179
  C   10.80038728615238     -2.85959352240948     -0.31990117892425
  C   9.51769681495762     -3.47254204008919     -0.38002364946074
  C   9.36441818762211     -4.86300153945851     -0.43596181413791
  C   11.30139665797921      2.72162362912619      0.08199913882626
  C   11.19675130577391      1.34620706093399     -0.00213483948782
  C   9.89906883916051      0.72917206261670     -0.00561990873055
  C   9.77373584228699     -0.65619622822557     -0.12588848328004
  C   10.24138173137511      4.94073537840582      0.21300942387744
  C   10.15128423896393      3.54883863780212      0.21118242218699
  C   12.35731090644342      0.49673157329034     -0.10129224822939
  C   12.23576426695865     -0.85346915649394     -0.19710732106042
  H   -9.72729545144013     -1.64350955617656     -0.29800241561770
  H   -9.11736298458187      5.03030172478255     -0.45840135855884
  H   -10.53520375563773      3.02565718418932     -0.48299109977258
  H   -10.75979774003288      0.57900273604186     -0.41943297089782
  H   -7.64815032760874     -6.11979210729918     -0.15045863925260
  H   -8.69506038676430     -3.88386427064948     -0.19742164115630
  H   -6.29690191603132      9.07665103782104     -0.52817843890270
  H   -7.71118057675500      7.05689035289661     -0.46432258371618
  H   -4.59303271052270     -9.74630186562145     -0.13604677189891
  H   -6.61061168158020     -8.34457578836504     -0.13496026420692
  H   -2.66688638647582     12.13836289553869     -0.60144604833513
  H   -4.89337351304868     11.09749065542698     -0.62345530019588
  H   -2.14453548799033     -9.94889520418639     -0.12540548257404
  H   -0.21771601555589     11.91818881414049     -0.46646647209471
  H   0.31843145629214    -10.16465472741745     -0.13642129089902
  H   2.23968737840112     11.70179172400448     -0.37058591596882
  H   2.77590200663672    -10.37987155521513     -0.17014346977259
  H   4.69408726781568     11.48395570407309     -0.31932144247454
  H   5.23097015214158    -10.60026822051653     -0.21332538449884
  H   7.14606235986848     11.27421360787268     -0.31647274052956
  H   8.85248784292552     -7.51266707233308     -0.34911059140657
  H   7.45502087904345     -9.55240614699698     -0.28651258801181
  H   10.18411853115854      7.62187493237445     -0.03506392535667
  H   9.15813050859022      9.86272719870807     -0.20756305150758
  H   11.68278576205985     -3.48811636192088     -0.35812083314373
  H   10.24964910595221     -5.48838567245477     -0.45603307420538
  H   12.27919256771224      3.18820248965070      0.04610104102734
  H   11.21828078234432      5.40592763057978      0.14631651684634
  H   13.33580176430658      0.96278165741060     -0.09472005544372
  H   13.11596795325361     -1.48226955713807     -0.26485206220052
  O   7.76096112069135      3.81161596724395      2.19806882546367
  H   7.69910593610865      2.90569080165056      2.57099378098796
  O   -3.94488581827343     -1.71452625772113      2.27266911384075
  H   -4.66326173117717     -1.14433765508952      2.62201410351986
  O   -1.02878772282100      2.45260603625823      2.42726758440068
  H   -1.75559698313267      3.00808598193590      2.78232414901891
  O   6.92842834074735     -3.13774320728754     -2.18629068331309
  H   7.61029622231950     -3.70338315252459     -2.60782505870530
