180
Coordinates from ORCA-job input-ccc
  C   -8.70812282201959      0.20222723823141      0.00000659040709
  C   -8.81200837994284     -1.18037957789224      0.00001000548457
  C   -8.31679976108966      4.45157406327957     -0.00000060846147
  C   -8.45566238108835      3.07204415993210      0.00000201400031
  C   -9.74829796056562      2.42233234501651      0.00000662918920
  C   -9.86745133616876      1.06773948616774      0.00000906786783
  C   -6.62561929664382     -4.26015396396088      0.00001087630948
  C   -6.71406331742190     -5.68339747456089      0.00001507276135
  C   -6.23961330478337      0.00034960204783      0.00000178393549
  C   -6.36210030852591     -1.41880954760070      0.00000166782668
  C   -7.66544829058956     -2.02827381296439      0.00000962261311
  C   -7.76277907937580     -3.43178725120753      0.00001122046053
  C   -5.86302835092878      4.25879821925502     -0.00000567765868
  C   -5.98991287716773      2.84002427347487     -0.00000538490102
  C   -7.27916207726699      2.23366971659881      0.00000026740297
  C   -7.40321717098654      0.82234098825973      0.00000189951474
  C   -5.46572168240376      8.51946339825279     -0.00001006246017
  C   -5.62678885168511      7.10258074369978     -0.00000961122062
  C   -6.89099570893292      6.48533306381783     -0.00000671256419
  C   -7.03990447037201      5.08634672988941     -0.00000555051876
  C   -4.55822740361437     -8.71784867059784      0.00002305021296
  C   -4.15509581443756     -4.47385541202633      0.00001033716585
  C   -4.27434123868797     -5.89347366672113      0.00001283699107
  C   -5.58867916390622     -6.49326674464789      0.00001642571418
  C   -5.67193849933342     -7.93756879830853      0.00002099364726
  C   -3.77755161237815     -0.21627453749798     -0.00000324807929
  C   -3.90134377966807     -1.63311710670935     -0.00000065352948
  C   -5.19906037478779     -2.23755617922357      0.00000725597339
  C   -5.32042007983711     -3.65466919122741      0.00000558408826
  C   -3.40268060848672      4.04057681852537     -0.00001118714186
  C   -3.52784865403560      2.62385858319833     -0.00001124078966
  C   -4.82124419485885      2.01948963901265     -0.00000457297366
  C   -4.94559533975819      0.60441951525061     -0.00000494373891
  C   -3.02692644647707      8.30072404516520     -0.00001264376431
  C   -3.15698115104276      6.88204228817243     -0.00001378851127
  C   -4.44736024809019      6.27866506072106     -0.00001090671909
  C   -4.57494012382176      4.86210077574276     -0.00001192503908
  C   -2.81394671978400     11.13147874747435     -0.00001057980803
  C   -4.04661608847376     10.55737923047412     -0.00001097863427
  C   -4.21636892845085      9.12062294963775     -0.00001220835838
  C   -2.08368101216564     -8.92775715762393      0.00002329766594
  C   -1.69668244977870     -4.68721085617329      0.00000846866490
  C   -1.82032525870809     -6.10977190871203      0.00001303092054
  C   -3.11405455536253     -6.70645500278410      0.00001648984194
  C   -3.22911624452745     -8.14648572901031      0.00002033801789
  C   -1.32113900213210     -0.43125165810404     -0.00000807009969
  C   -1.44544750339073     -1.84896708912295     -0.00000422932633
  C   -2.73695801655153     -2.44984242879540      0.00000114148123
  C   -2.86005113321138     -3.87202987432024      0.00000490247528
  C   -0.94682116549881      3.82476072647331     -0.00001573181837
  C   -1.07161710586312      2.40708902370275     -0.00001452749633
  C   -2.36173052749654      1.80597239723988     -0.00001043491359
  C   -2.48652718471177      0.38565806981572     -0.00000856565007
  C   -0.57289661306048      8.08567294872641     -0.00001296400471
  C   -0.69909837436482      6.66333600076037     -0.00001329772009
  C   -1.98688248818359      6.06355987431703     -0.00001603309543
  C   -2.11360751449826      4.64169161298722     -0.00001366425333
  C   -0.34086651125241     10.90644486275918     -0.00000889116926
  C   -1.60495828049995     10.33694107869921     -0.00001117499626
  C   -1.74262521318440      8.89887512885839     -0.00001325927272
  C   0.39062111535544     -9.14488666667710      0.00001877020771
  C   0.76334093636448     -4.90172392928200      0.00000180519853
  C   0.63811790341813     -6.32766901038861      0.00001073689567
  C   -0.65253868569024     -6.92541953848647      0.00001158781799
  C   -0.77614835113398     -8.35878283498693      0.00001962820699
  C   1.13736576471784     -0.64561126179178     -0.00001188185181
  C   1.01254013115366     -2.06649133945755     -0.00000402165573
  C   -0.27776513044248     -2.66718000638915     -0.00000720482796
  C   -0.40179858337997     -4.08608084219363      0.00000699261751
  C   1.51141087763705      3.61023713663194     -0.00001477260379
  C   1.38658584729815      2.18935788753165     -0.00001638630207
  C   0.09652210512307      1.58853017376718     -0.00001347990658
  C   -0.02801946046694      0.17100636788639     -0.00001008461283
  C   1.88583522322934      7.87141535533020     -0.00000936587328
  C   1.76060906024712      6.44547128655139     -0.00001245310889
  C   0.47098369935203      5.84556751667896     -0.00001483294072
  C   0.34576394811767      4.42676730377393     -0.00001528585276
  C   2.13333380575571     10.68863312269144     -0.00000233890602
  C   0.84737585350944     10.11810115715528     -0.00000777315351
  C   0.71930128867622      8.68512444043168     -0.00001006641592
  C   2.86482031942013     -9.36269728643337      0.00000367480907
  C   3.22304830946097     -5.11958765733691     -0.00000689629061
  C   3.09685019238245     -6.54192457077760      0.00000118813286
  C   1.80465273859497     -7.14137654440449      0.00000081431201
  C   1.67657865317821     -8.57435337616283      0.00001129647788
  C   3.59556657010437     -0.86334010115460     -0.00001197453419
  C   3.47077549137701     -2.28101461999666     -0.00000368004799
  C   2.17818827554296     -2.88301714408657     -0.00001511881001
  C   2.05296607119800     -4.30181833992459      0.00000670480596
  C   3.96939788044726      3.39271498957568     -0.00000924941333
  C   3.84509048834400      1.97499947070581     -0.00000929619964
  C   2.55197060763672      1.37274118644612     -0.00001413500484
  C   2.42742896460537     -0.04478209806277     -0.00000583922957
  C   4.34427829590191      7.65351625071409      0.00000040218728
  C   4.22063778815395      6.23095490762995     -0.00000529257637
  C   2.92575009215492      5.62983055883272     -0.00000751151878
  C   2.80171683572247      4.21092861337392     -0.00001295772988
  C   4.60763585013472     10.47150257057677      0.00000790661332
  C   3.30010302202801      9.90252853479960      0.00000041405437
  C   3.17649216366860      8.46916452396331     -0.00000442969697
  C   5.33790107262425     -9.58773102183987     -0.00001915102454
  C   5.68093241171841     -5.33829419606540     -0.00001706149174
  C   5.55087873756677     -6.75697618754502     -0.00001714252532
  C   4.26657768478894     -7.35512816124500     -0.00001348751741
  C   4.12891236314257     -8.79319442408040     -0.00000778243452
  C   6.05179776104060     -1.08011172141050     -0.00000741594720
  C   5.92663367280139     -2.49683094774448     -0.00000511525935
  C   4.63756124548280     -3.09794451411356     -0.00001926629619
  C   4.51083281372737     -4.51981256834544      0.00000015565479
  C   6.42529389209923      3.17686405443945      0.00000147622906
  C   6.30150664109455      1.76002037978776      0.00000342912222
  C   5.01047881145371      1.15809093397210     -0.00001049103489
  C   4.88568157419263     -0.26222426539508      0.00000145580200
  C   6.79829496259976      7.43721979923751      0.00001267397540
  C   6.67905078400063      6.01760143904717      0.00000915439027
  C   5.38400629864729      5.41577530871242      0.00000148618671
  C   5.26090857781277      3.99358864302849      0.00000013502679
  C   7.08218195288960     10.26159273212055      0.00001857351105
  C   5.75307062818069      9.69023028567737      0.00001147808410
  C   5.63800776297535      8.25019981171006      0.00000443796572
  C   8.15074129626227     -5.55883268778782     -0.00002803294024
  C   7.98967509051309     -6.97571536791881     -0.00003378612319
  C   6.74032206606086     -7.57687412934742     -0.00002905812177
  C   6.57056988445562     -9.01363045986032     -0.00002982561705
  C   8.51386356384459     -1.29627749120139     -0.00000405693818
  C   8.38698246042546     -2.71505157513078     -0.00001132071869
  C   7.09889408692295     -3.31835282570094     -0.00001821061671
  C   6.97131287022017     -4.73491806485126     -0.00001511461110
  C   8.88605261664989      2.96255652324687      0.00001567777359
  C   8.76356714601982      1.54339652236623      0.00001232066947
  C   7.46954912626134      0.93932663400797     -0.00000182573246
  C   7.34519436237539     -0.47574295280029      0.00000494888708
  C   9.23801783308043      7.22714156485207      0.00002648903659
  C   9.14957241627722      5.80389760780432      0.00002488831007
  C   7.84437380990984      5.19841331901643      0.00001441508313
  C   7.72301141938742      3.78130062158211      0.00001568693208
  C   8.19589322218441      9.48131315171996      0.00002247434727
  C   8.11263417640371      8.03701082795336      0.00001898225473
  C   10.97961481136812     -1.52829789535952     -0.00000168420077
  C   10.84075372120000     -2.90782772361121     -0.00001220629370
  C   9.56385881744854     -3.54259998483036     -0.00001866782789
  C   9.41494813345625     -4.94158601076201     -0.00002726420822
  C   11.33596032707375      2.72412416464756      0.00002846856948
  C   11.23207430282182      1.34151750629209      0.00001968320442
  C   9.92716942219611      0.72140362848054      0.00000959918857
  C   9.80311361345962     -0.68992495991310      0.00000402130971
  C   10.28673268601610      4.97553224890095      0.00003080075760
  C   10.18940155835043      3.57201884232777      0.00002757561151
  C   12.39140328468831      0.47600656460419      0.00001761736052
  C   12.27224988599420     -0.87858613482898      0.00000725736059
  H   -9.80322628719580     -1.64218653267280      0.00001519821172
  H   -9.21235354124922      5.07908029686797      0.00000050681211
  H   -10.64045453778269      3.05413848634430      0.00000814321402
  H   -10.85623288783292      0.60148225226000      0.00001313644747
  H   -7.70508708578510     -6.14562040704088      0.00001835250279
  H   -8.75380578750533     -3.89376258783668      0.00001346897083
  H   -6.36108941359286      9.14723294804769     -0.00000897031924
  H   -7.78637169403729      7.11290871929605     -0.00000418981085
  H   -4.64874999896735     -9.80730829780438      0.00002678725772
  H   -6.66493698626057     -8.39477443043261      0.00002320926698
  H   -2.71278932563716     12.21999924714680     -0.00000866536262
  H   -4.94485145626412     11.18047424132216     -0.00000974144482
  H   -2.17962895770188    -10.01705020760134      0.00002663443574
  H   -0.24526893111117     11.99576917752203     -0.00000587494167
  H   0.29487392305192    -10.23409145934887      0.00001954559453
  H   2.22908186179378     11.77783778387775      0.00000184661912
  H   2.76922162882667    -10.45202157770658      0.00000344772350
  H   4.70358457992790     11.56079554770650      0.00001082917928
  H   5.23674411028297    -10.67625158248690     -0.00001963427473
  H   7.17270471137769     11.35105240334409      0.00002112657712
  H   8.88504344723917     -7.60348410307164     -0.00004295150047
  H   7.46880647284938     -9.63672380678381     -0.00003803644412
  H   10.22904076952634      7.68936637502132      0.00003243858347
  H   9.18889134023509      9.93851963535207      0.00002771994795
  H   11.73630740653893     -3.53533424783839     -0.00001749703191
  H   10.31032419579883     -5.56916142328009     -0.00003211777502
  H   12.32717859262220      3.18593078321783      0.00003696054198
  H   11.27776051266010      5.43750500855636      0.00003835929196
  H   13.38018476083294      0.94226389292325      0.00002409425359
  H   13.16440601062531     -1.51039293164656      0.00000544313142
