190
Coordinates from ORCA-job input-ccc-10epoxy-geom-pcJ0
  C   -8.66418810235263      0.19757916464026      0.09093240357416
  C   -8.76600272743722     -1.17955259987080      0.21085535658438
  C   -8.29467204930365      4.42803770037750     -0.00143895440391
  C   -8.46739735087988      3.07813760084341     -0.06887641170152
  C   -9.72684721008913      2.41826235123374      0.17248889985717
  C   -9.82358069516118      1.06373405241342      0.21646667532884
  C   -6.59521352098920     -4.22496982249848      0.24466607874393
  C   -6.68877477827786     -5.66036573529185      0.34935097903788
  C   -6.23519875935985      0.00318913167675     -0.17545829232517
  C   -6.33321635546139     -1.40621505377043     -0.00648101148024
  C   -7.61976896264165     -2.00746861972699      0.14378448362981
  C   -7.72542285513666     -3.41385224208722      0.24217690000930
  C   -5.83934928106263      4.28709879359822     -0.27134495977147
  C   -5.96082185174842      2.85860598874851     -0.55286736248013
  C   -7.33369177891316      2.21234865097158     -0.44421969337776
  C   -7.39359932387588      0.77776805670397     -0.16036528012231
  C   -5.43861181574607      8.47386521205290      0.25566303366845
  C   -5.59660060498525      7.06992303163591      0.08045902175879
  C   -6.86219096022943      6.45434015904963      0.07097678097963
  C   -7.00184818800790      5.07044335386561     -0.09930002285700
  C   -4.55612810835490     -8.70030248037833      0.30281440611009
  C   -4.14034189848759     -4.45398965149741      0.36125134539285
  C   -4.26790859585341     -5.91074595932275      0.20994746090631
  C   -5.58534849157157     -6.48258412040663      0.32286335024613
  C   -5.67168905995074     -7.92269583084209      0.37001641414885
  C   -3.75375736683269     -0.19468773571555     -0.24602394764296
  C   -3.86068823857371     -1.62875553563335     -0.12320245652937
  C   -5.17203082439191     -2.23074855688946      0.02883433463152
  C   -5.31457805905204     -3.60821935461778      0.18119511620338
  C   -3.39430638982330      4.03656902291687     -0.27240708670447
  C   -3.52370559303553      2.62214016511249     -0.31164019698485
  C   -4.78990156454423      2.00369966401176     -0.36895633618656
  C   -4.92534850139148      0.62086007491245     -0.28535369322910
  C   -3.00868444411084      8.26587833142037      0.09932585012912
  C   -3.14157543454274      6.85971479705748     -0.06526946305556
  C   -4.42911592549730      6.26362068349883     -0.06269547126941
  C   -4.56844481223743      4.86100179820823     -0.20815871697815
  C   -2.79432909545054     11.04977663134503      0.55527475628518
  C   -4.02719145669939     10.48275630342802      0.49860242204383
  C   -4.19095539946086      9.06647294162059      0.28140727500062
  C   -2.09892455847398     -8.90461176069252      0.16487165852244
  C   -1.65618017830852     -4.66401597043974     -0.19956768395443
  C   -1.87677955098116     -6.08814326820389     -0.33031803436515
  C   -3.16473705068829     -6.69030681184515      0.03937150319711
  C   -3.24031817525604     -8.12753358063892      0.13980943522927
  C   -1.29848869474187     -0.41578393029716     -0.40741368514353
  C   -1.42582827288151     -1.85316639196195     -0.42464108804783
  C   -2.71658978708678     -2.40170909975325     -0.16383679848276
  C   -2.78089633812890     -3.82105214861439      0.16579126904088
  C   -0.95577593543292      3.80602874434136     -0.21578141489659
  C   -1.10153288893153      2.42503436421502     -0.19691033574533
  C   -2.36269328443871      1.81355886031625     -0.27902899438495
  C   -2.48837680240432      0.39678359464005     -0.30031957440869
  C   -0.56525342531212      8.07313431342488     -0.12018361446049
  C   -0.69644271807904      6.64410037363621     -0.26825705513015
  C   -1.98563662940713      6.05175000639317     -0.20136702251010
  C   -2.11983299974307      4.63083580442228     -0.24525861208574
  C   -0.33838534510819     10.82909724373102      0.47680142059080
  C   -1.59663227851204     10.26537817946657      0.37464356184350
  C   -1.73591228102454      8.85983769132239      0.11034180979609
  C   0.36209394113409     -9.09642434848022      0.30042433879617
  C   0.77044751644051     -4.93358080144943     -0.46453605769079
  C   0.66869442366031     -6.31497219032439     -0.28937842558843
  C   -0.63560379280861     -6.97425391666513     -0.38005039752350
  C   -0.77682263712353     -8.37529542848891      0.05311772392462
  C   1.12303649821235     -0.57057476797024     -0.74594462343320
  C   0.98921779803813     -2.11107796401608     -0.85217800804534
  C   -0.31342193095869     -2.67911069789401     -0.53762903533723
  C   -0.42534508156398     -4.10779132477077     -0.42583723414492
  C   1.52168755546946      3.63786628163822     -0.24488936522128
  C   1.42465032598117      2.19983350717757     -0.03272888446885
  C   0.06678121634692      1.57104063808585     -0.02230234439683
  C   -0.06518572966999      0.17252085330255     -0.39454055699915
  C   1.88112996985327      7.95946791165671     -0.47667896866111
  C   1.74274525693840      6.39313729331386     -0.63119200229535
  C   0.43695165529619      5.81552288221400     -0.37130158610885
  C   0.34983007490459      4.41713955614631     -0.25191596007389
  C   2.12879684636781     10.61052622442446      0.38417624656390
  C   0.83741902026337     10.05848393631207      0.26699536804767
  C   0.68811744181102      8.69233370747081     -0.09497785888052
  C   2.82350357730609     -9.26469027832364      0.43378107486900
  C   3.19828842025329     -5.14949860767640     -0.41420963946376
  C   3.08851388055909     -6.51844893368773     -0.11185413614402
  C   1.80361349268901     -7.11149973600044     -0.05486097159609
  C   1.67121976766663     -8.51068296740180      0.22125525610831
  C   3.58359062508625     -0.84787899354690     -0.55400216082694
  C   3.43433192809784     -2.27123164773272     -0.66100494436542
  C   2.21227842705945     -2.90973604153791     -0.68648765410592
  C   2.06937543116195     -4.33293400236356     -0.54356394165346
  C   3.98044932778165      3.38537791544159     -0.32175283843863
  C   3.85400780688012      1.96482178474166     -0.33478695707706
  C   2.58749582299487      1.36052138239298     -0.32852728247000
  C   2.45346696632981     -0.00318831367833     -0.51324589306241
  C   4.32675017770542      7.65004027447139     -0.23395600194123
  C   4.20239736177590      6.22124827049336     -0.37587967201031
  C   2.94566991741022      5.60257383591611     -0.44066953290728
  C   2.80534191328111      4.20792237747649     -0.33809830317167
  C   4.59655379982066     10.38758116386592      0.40858312565588
  C   3.29636515664558      9.83991777713507      0.22282903623195
  C   3.19624227978542      8.47518753051473     -0.15277266174551
  C   5.28830681330143     -9.48318287472886      0.61068516465515
  C   5.70090777402581     -5.35748068743556     -0.21513201481444
  C   5.54828122271794     -6.71878173777069      0.06982937864767
  C   4.25314191416314     -7.31423691389537      0.10167654640239
  C   4.10920966162882     -8.69169837571490      0.37786103383663
  C   6.05239478485221     -1.08923346134037     -0.32640523175435
  C   5.95580475004536     -2.47078614784332     -0.42476980669820
  C   4.66183421039517     -3.06832108125263     -0.76061822024791
  C   4.52840465688072     -4.59395025891679     -0.64232072161004
  C   6.40955219695294      3.14922755270325     -0.27833775744182
  C   6.28374682533815      1.74535967201424     -0.25130725075858
  C   5.00097626912892      1.13913293993866     -0.35319819288560
  C   4.87169328692609     -0.26780198332661     -0.42273555246541
  C   6.77414903319622      7.40764574261545     -0.13356785069496
  C   6.63704525238323      6.02054375115442     -0.32090195785833
  C   5.37500528385932      5.41224098330465     -0.34648902304595
  C   5.25178534502028      3.97552995205281     -0.33822424493939
  C   7.04826405449736     10.17902730011724      0.45718100418015
  C   5.73054430554000      9.61695704606098      0.26137353298288
  C   5.62191060847150      8.21790243173778     -0.04777606882374
  C   8.11700367239639     -5.53898225810087      0.09034883794383
  C   7.96124402143256     -6.92984098425342      0.30092287885919
  C   6.70942345109186     -7.52294703090347      0.32449781098405
  C   6.53062975628081     -8.92533854704555      0.58610104096527
  C   8.50864181613519     -1.29833305876399     -0.02600220919034
  C   8.36408178375240     -2.71445865971263     -0.08930144583183
  C   7.08940162317900     -3.30843924098238     -0.24924958039815
  C   6.95350917541846     -4.72980927961966     -0.15405414241409
  C   8.83869066750095      2.99378254174640     -0.02714887948104
  C   8.68435542744638      1.56600085079789      0.25677442062083
  C   7.42140255518758      0.91959533442360     -0.08169064535513
  C   7.33049951146896     -0.46555098623844     -0.12261420918549
  C   9.22535026797315      7.23851150113438      0.08685263329637
  C   9.21542172791993      5.83182789573609     -0.29182260666607
  C   7.82292015490049      5.18034156269559     -0.50927398497884
  C   7.71542558435410      3.74040377842891     -0.26271856710309
  C   8.16005298318779      9.41227890269138      0.38199467374392
  C   8.09122896397235      7.99533248888463      0.08753728623199
  C   10.94013724694151     -1.56292545458908      0.07416399461732
  C   10.80388129870891     -2.93160309984754      0.07553967598392
  C   9.52446092330302     -3.54436136612873      0.03524714702580
  C   9.38034673528525     -4.93229015721176      0.12860897485493
  C   11.31015503797799      2.71144639447781      0.19660903441933
  C   11.23793062198634      1.36607239255583      0.21367814702461
  C   9.93502633377198      0.69118369705226      0.36201892794480
  C   9.78812569298179     -0.73907889952864      0.09906933647908
  C   10.31271729360097      4.94168227165717      0.06980709557501
  C   10.15376732363734      3.58571361606040      0.09259871654763
  C   12.44360371022306      0.52661952545736      0.12228862608288
  C   12.28922313259555     -0.96105857418544      0.06127912366145
  H   -9.73669086242894     -1.63611103287522      0.36382198287920
  H   -9.15100598057926      5.06062581493184      0.20516000069686
  H   -10.60555918370473      3.03413451699160      0.32708999643121
  H   -10.78454298759771      0.59335291482223      0.38840750872400
  H   -7.67671725796575     -6.09936319915358      0.42400698977342
  H   -8.70755381443732     -3.86226017599639      0.33553527631515
  H   -6.32341675305968      9.08685040121547      0.38142281753162
  H   -7.74702438318488      7.06461930326806      0.20967468500296
  H   -4.63830580040581     -9.77932871694722      0.36478001845165
  H   -6.65103554038116     -8.37621217566258      0.46891622788751
  H   -2.68594967944120     12.11261862597969      0.73738760251637
  H   -4.91718261622715     11.08687659729466      0.63078705481261
  H   -2.20292204175876     -9.97174336137364      0.32750474915309
  H   -0.23989922055623     11.88117456526680      0.71701890161815
  H   0.28500510237606    -10.14124686689403      0.57939921191086
  H   2.22682131883720     11.66037051158154      0.63345624160100
  H   2.73152510703371    -10.32237838552575      0.65146130447981
  H   4.69052783255038     11.43357613076302      0.67560750431565
  H   5.16541363314197    -10.54074614536833      0.81274936981079
  H   7.12299399388520     11.23743460267215      0.67764662062373
  H   8.84388740218741     -7.53540691529215      0.46975708522162
  H   7.41013336546444     -9.53151524491985      0.76864631540959
  H   10.17168339032359      7.68888043539959      0.36357175655873
  H   9.13960613412236      9.84777142450669      0.53996806319179
  H   11.68243864537979     -3.56369140338327      0.11992242532850
  H   10.26126831937573     -5.54941302865218      0.25975742848643
  H   12.28211905063739      3.19075734435274      0.17170910687934
  H   11.28126789566043      5.37826126160471      0.28533909763542
  H   13.36269554317514      0.94783860591955      0.51337411459518
  H   13.09773839137020     -1.58644020891570      0.42145016078020
  O   0.79147662952045      1.80255881599638      1.28329864145106
  O   9.21148832814949      1.13917577412278      1.59649208773909
  O   -3.30384432077949     -4.08568804580347      1.55871144509709
  O   4.70480888354046     -3.93961754059044     -1.97103455089084
  O   1.78910908012717      7.29813624559529     -1.80210129992290
  O   -6.75297765462226      2.53625945629060     -1.78446481489325
  O   1.01502794124415     -1.25536741373458     -2.06973226008545
  O   12.61801576767840     -0.19509596533928     -1.17410227503656
  O   -1.37404659892603     -6.65197840294871     -1.63040617350786
  O   8.65653207981696      5.56529954579861     -1.67127430092023
