192
Coordinates from ORCA-job input-ccc-4oh-4epoxy-geom-pcJ0
  C   -8.67994908337946      0.20782313759765      0.15184647820335
  C   -8.79492192779694     -1.17911210166966      0.15063585553957
  C   -8.27251203704330      4.42708060906895     -0.08384929745042
  C   -8.41909564026949      3.04360736776087     -0.00788957863889
  C   -9.70865261575991      2.41346444785822     -0.07687675307455
  C   -9.83211328283899      1.05693859979383     -0.01092742759387
  C   -6.60020692764272     -4.21710739659354     -0.15557173435488
  C   -6.68502689401415     -5.65264784535663     -0.23215504198269
  C   -6.23803395678139     -0.01447953443130      0.71741864609637
  C   -6.35440777088463     -1.44191274252388      0.26808383435388
  C   -7.63488737666079     -2.01545310483711      0.14292297355745
  C   -7.74307644854101     -3.40907348821673     -0.03255206163977
  C   -5.83893461370001      4.21308210186397      0.09079600586701
  C   -5.97094120164931      2.82117829286020      0.19087791838502
  C   -7.26120871489367      2.20864475642679      0.15769482500578
  C   -7.40050877507745      0.82350252652168      0.27243626557890
  C   -5.42466962764997      8.46714063895724     -0.15658060331788
  C   -5.59080480465609      7.05069041667454     -0.09288852238095
  C   -6.84682323634497      6.44582176116301     -0.10881893005101
  C   -7.00363235097269      5.04297836509585     -0.03141682391438
  C   -4.55912031290396     -8.68416888810063     -0.15406116007231
  C   -4.14179583661583     -4.41255368935097     -0.59557994178188
  C   -4.25414233940546     -5.88114168104731     -0.28263726573203
  C   -5.56971817760919     -6.45969026683022     -0.24085310647792
  C   -5.66801697959679     -7.90021767455740     -0.18232715964863
  C   -3.78131184844248     -0.22557561433364      0.24232457041575
  C   -3.89715086912818     -1.62721181289490      0.12356453341325
  C   -5.20542251172846     -2.22303449364966      0.07676551153741
  C   -5.33759078184368     -3.59708218442319     -0.16762410878600
  C   -3.39536973218454      4.00531933582862      0.16236674115326
  C   -3.52282648488555      2.59537376381358      0.22173452141531
  C   -4.80795859318041      1.98825122369092      0.25822810318633
  C   -4.92583113530489      0.59536366488913      0.33671051682877
  C   -2.99378684682416      8.24479327756725     -0.13360652878057
  C   -3.13919882151964      6.82091558109216     -0.02850678129006
  C   -4.41791281200759      6.22738789542048     -0.01098961425997
  C   -4.55078816128783      4.82116576704946      0.08463206125202
  C   -2.79198804233618     11.07015314966280     -0.26566159751689
  C   -4.01899953915823     10.49757482546019     -0.21438158728339
  C   -4.18162191816491      9.06100052166313     -0.17066841829558
  C   -2.10245938171564     -8.89527441010815     -0.16267214018775
  C   -1.68628486081036     -4.62914873323557     -0.20273742386547
  C   -1.80179276192416     -6.08090208697812     -0.26453617759147
  C   -3.12587275307535     -6.66691184113486     -0.23663974923147
  C   -3.23335699957380     -8.11316388016861     -0.17698221833398
  C   -1.32297127426972     -0.43146849691735      0.22872986885342
  C   -1.44917304419892     -1.83584056692648      0.13887959694681
  C   -2.73604375299676     -2.43712487516138      0.03125486132093
  C   -2.83085742844421     -3.82563694399428     -0.17313796086598
  C   -0.94330900722297      3.79370629066771      0.28146689370798
  C   -1.06937852553821      2.38394398836929      0.29535520162647
  C   -2.35881197658063      1.78378846670643      0.25778642872959
  C   -2.48633604826142      0.37996223558087      0.24034422732649
  C   -0.55683859715353      8.02065515498346     -0.09481263371810
  C   -0.69449456339832      6.60134360356724      0.10035987818236
  C   -1.98507988392853      6.00715865848356      0.07651014037369
  C   -2.10736267076260      4.60288253844691      0.17720957062257
  C   -0.35783793577293     10.82867188588423     -0.49479964856900
  C   -1.58261465094170     10.27037245797208     -0.31591909926191
  C   -1.72659664751489      8.82512930717073     -0.19558070849166
  C   0.36114940328638     -9.10360273368535     -0.18545577413314
  C   0.77632478862168     -4.81714242774118     -0.30083202963379
  C   0.64971076605192     -6.30878419632264     -0.40613164157708
  C   -0.69098715366886     -6.88873744943316     -0.27083642305950
  C   -0.78800046266017     -8.32672989500941     -0.20315018210843
  C   1.12361703683786     -0.65840857994067      0.27705677331921
  C   1.00158922607223     -2.04553876989043      0.19669994633244
  C   -0.29110442386001     -2.64546944997057      0.09160185468755
  C   -0.42479825155881     -4.02618248002923     -0.09673769500269
  C   1.50981700365681      3.58130505318211      0.43141306935853
  C   1.37813135724100      2.17682267340275      0.37296142346127
  C   0.08936960056919      1.57392503042124      0.32353086526627
  C   -0.03806327484174      0.16380841348413      0.28063090921096
  C   1.87035124096562      7.85602788676765      0.10040180495322
  C   1.70848229540148      6.46721836508682      0.53690937851852
  C   0.42748293303357      5.80556911088758      0.31024892938127
  C   0.33870950893109      4.40050563968923      0.36338916677728
  C   2.16260529053448     10.61465735637803     -0.40479368359249
  C   0.85332174903022      9.98006553367441     -0.75682454593115
  C   0.71541805754525      8.59404695539358     -0.18703783078681
  C   2.85191988315990     -9.32670278779403     -0.08321571743551
  C   3.15405568046198     -5.12352979033010      0.38165840883110
  C   3.06848460042426     -6.55399362708807      0.07596362547579
  C   1.82996049830591     -7.13816891938650     -0.12759439707243
  C   1.68494273688575     -8.54352038673225     -0.14316967900302
  C   3.58155418449107     -0.85696205052800      0.31059060544490
  C   3.47866283511193     -2.27224709535518      0.32869585641102
  C   2.17092509395445     -2.88481890948969      0.24082396277060
  C   2.04145049029688     -4.23970862629645      0.11415728495416
  C   3.95304724193789      3.37967091990375      0.41881282578188
  C   3.83705856689603      1.94878080326216      0.36369379324166
  C   2.54094059116764      1.35320406245807      0.35252487464419
  C   2.42138785523185     -0.04719003999518      0.32312325656301
  C   4.32642396572200      7.62181171883037      0.19359057882703
  C   4.24120739081274      6.22682247755518      0.34787943679635
  C   2.95473942705944      5.60341005300285      0.64351602377677
  C   2.81275129240291      4.15414890130875      0.48655599330638
  C   4.59417391991785     10.43354938494252     -0.09917062096381
  C   3.27481504210023      9.85895094034798     -0.14348304100715
  C   3.14681921871295      8.42372584455205      0.06773969609368
  C   5.32697674167409     -9.53691724705803     -0.05699590056260
  C   5.70478859322836     -5.32617641128085      0.20197970641180
  C   5.55008323114037     -6.70768719481844      0.11890098326857
  C   4.24674395427103     -7.32729552530653      0.09101671173098
  C   4.12443429448296     -8.73908497655455     -0.01536767857499
  C   6.01541604560569     -1.07250410430986      0.12664734494879
  C   5.91252351311668     -2.45254121952600      0.16398113348950
  C   4.63539452176262     -3.04475103918233      0.32241006477107
  C   4.54394952497954     -4.48717411066115      0.49421668666945
  C   6.40998159325245      3.21310375841667      0.36268848810184
  C   6.28345140197280      1.76352813406391      0.50762569355104
  C   4.96918774228998      1.14807553110740      0.33662779568465
  C   4.86744418653646     -0.25590855343341      0.26064030298011
  C   6.76846043268665      7.42498291518668      0.09377138994408
  C   6.66425355753955      6.00838427159446      0.16878275047084
  C   5.37833645932644      5.41518466205609      0.28707913876790
  C   5.26348864473480      3.99100735732395      0.37157476089875
  C   7.04767051764798     10.23927745686617     -0.05727289171780
  C   5.72379650470586      9.66143405897096     -0.01378430312109
  C   5.61696531012136      8.22115011450331      0.09310220407541
  C   8.14216129449743     -5.52870324274031     -0.03846305007335
  C   7.97736886215142     -6.93823119533339     -0.05939258797045
  C   6.72546927286713     -7.53098363947995     -0.00325410499054
  C   6.55969691845037     -8.96232409995512     -0.06090657028039
  C   8.50956043169825     -1.29438865095610     -0.08272385127518
  C   8.36707055369639     -2.69879352704405     -0.03848957593111
  C   7.09235495787206     -3.29601382768827      0.06215586415730
  C   6.96740037344469     -4.70216396523140      0.07143263651874
  C   8.86754539043245      2.96546350443332      0.09376664567663
  C   8.77732410287713      1.56837528449039      0.07339330320601
  C   7.49365874399264      0.92276684324373      0.35487031902732
  C   7.30193407078279     -0.42860278852860     -0.27527693333923
  C   9.19955825985251      7.22603683397868     -0.04242893486861
  C   9.11821361870499      5.79871557636608      0.00234559132744
  C   7.81984011782614      5.19235243207300      0.13213392352786
  C   7.69854610887807      3.78723362885280      0.21246255676160
  C   8.16259876834492      9.46511161608963     -0.05281913788016
  C   8.07990860131688      8.02415793528111      0.00172338774983
  C   10.93782015944291     -1.50715413002356     -0.16434799180743
  C   10.81313273802572     -2.88829775651035     -0.16358070750360
  C   9.54565308941515     -3.52314868346713     -0.09454373037252
  C   9.40431355813665     -4.92004674646986     -0.10467261450493
  C   11.28750555484400      2.74521123374639     -0.18998777835500
  C   11.18039363339870      1.35608626628293     -0.20436176781008
  C   9.89249926414069      0.75476514476378     -0.09826665930299
  C   9.75786083066758     -0.68957534902286     -0.11162276016454
  C   10.24594929790626      4.99031824215438     -0.08317825672267
  C   10.15088234327041      3.57603387412992     -0.06259003035313
  C   12.33930479054366      0.49758504534785     -0.28891028932424
  C   12.22438132283347     -0.85681159262127     -0.25456370678814
  H   -9.77416526183709     -1.63771173253394      0.08143474688066
  H   -9.15419865930148      5.04811239868081     -0.19353174981548
  H   -10.58443279679681      3.04099997199191     -0.19487744582115
  H   -10.80797321407733      0.59077807042485     -0.08670419567515
  H   -7.66916165885881     -6.10714107454397     -0.22038435002798
  H   -8.72555408732971     -3.86571881980980     -0.07695246357548
  H   -6.31146897043472      9.08965715106770     -0.19313864953727
  H   -7.73240672025361      7.06622099782887     -0.18793170076461
  H   -4.64960799068291     -9.76347232443864     -0.11264925896444
  H   -6.65635285941897     -8.34488259215723     -0.15764555331194
  H   -2.68862645836805     12.14797755579738     -0.30704317938325
  H   -4.91234696277488     11.11130844506962     -0.21116316108955
  H   -2.19925253196812     -9.97415672134605     -0.12232380208715
  H   -0.24979240239553     11.90240745863429     -0.59540413605394
  H   0.26335235825000    -10.18292825111163     -0.16464960917133
  H   2.25797378675946     11.68412683000819     -0.55298593496771
  H   2.76910556279636    -10.40706662496121     -0.10884013597281
  H   4.68577346784720     11.50938425508093     -0.19282105410242
  H   5.22497280670780    -10.61470274078185     -0.10782155457091
  H   7.12994336915045     11.31884809207398     -0.10831211790753
  H   8.85926249868136     -7.56456548372849     -0.12940859645528
  H   7.45029680316637     -9.57741330237615     -0.11808255837869
  H   10.17854495201619      7.68443289369520     -0.12186381951217
  H   9.14592152704552      9.91867954353720     -0.09830907238758
  H   11.70335062411482     -3.50400517492915     -0.22242133865989
  H   10.29000743350891     -5.54182449526868     -0.16713094824228
  H   12.26576942294654      3.20382882053247     -0.27595298154566
  H   11.22309144516566      5.44836743828511     -0.18369635072277
  H   13.31566676869121      0.96197657658436     -0.36518836048173
  H   13.10866622630367     -1.48182071767956     -0.30350008144301
  O   2.29893540022108      6.15200904781105      1.87430575611046
  H   -6.25714601026427      0.78806112912879      2.57977079869295
  O   3.79378550403395     -4.89139033057423      1.71813334259583
  O   7.00678919933481      1.15113138902955      1.72042817943904
  O   -6.29179009787477     -0.10900228257355      2.18388099785137
  O   0.83388759164140     -5.49413533815095     -1.66145103134575
  O   0.85420356810596      9.85091720035703     -2.23170590829180
  H   1.61388072902678      9.29861675236839     -2.51883984630870
  O   -4.21999301421323     -4.28780485225973     -2.05834264479750
  H   -3.43805177992732     -4.71604417193781     -2.46830635076355
  O   7.21215269924737     -0.06223109302085     -1.68352159200914
  H   7.23644741155369     -0.85717280500937     -2.25330528556399
