267
Coordinates from ORCA-job input_L1_gmt
C     -8.6886989818    0.2443586315    0.4056432516
C     -8.8156390394   -1.2147777679    0.6915369664
C     -8.2234427203    4.4156632876   -0.5782449365
C     -8.4162543519    3.0049171478   -0.0665626886
C     -9.7281996341    2.3722106796   -0.3422734427
C     -9.7689724435    0.8715617803   -0.4431183730
C     -6.4489965783   -4.3194989138    1.3553536240
C     -6.6797527214   -5.7157569717    0.7795421591
C     -6.1832749447   -0.0094809456    0.5227965493
C     -6.2820574868   -1.3832849867    0.7577883751
C     -7.5905295640   -1.9795386183    1.0502789441
C     -7.7005235848   -3.4556521498    1.2487475604
C     -5.8045193350    4.2071798382    0.1120021164
C     -5.9330785234    2.8228653439    0.1599443374
C     -7.2190515759    2.1799672928    0.1596460868
C     -7.3414953990    0.8363777954    0.3672436508
C     -5.4777561810    8.5399402312   -0.1929819756
C     -5.5915182279    7.1119385710    0.2019149125
C     -6.9376942566    6.4935838136    0.1907147542
C     -7.0217166379    5.0182988980    0.0987605495
C     -4.3829366349   -8.4324605258   -0.8093918971
C     -4.0932946881   -4.4262048344    0.5464539515
C     -4.1814630089   -5.8497551550    0.4139752969
C     -5.5019855885   -6.4877326211    0.3106407648
C     -5.5906569407   -7.5637941471   -0.7241055076
C     -3.7339311607   -0.2100156436    0.4017099708
C     -3.8515563475   -1.6191570729    0.4990756801
C     -5.1334931405   -2.2225328375    0.7009936011
C     -5.2172767279   -3.6358581840    0.7853730809
C     -3.3694996835    4.0222613521    0.1273593384
C     -3.4916969912    2.6100861523    0.1985728638
C     -4.7698059153    2.0027037079    0.2440647840
C     -4.8933072156    0.5997285460    0.3850960123
C     -2.9881328365    8.2548235382   -0.2276513681
C     -3.1432664181    6.8332925086   -0.0471550052
C     -4.4035773682    6.2477987756    0.0761956641
C     -4.5382311163    4.8384139979    0.1139028099
C     -2.7460560861   11.1202050211   -0.6787190532
C     -4.0594531020   10.4726524048   -0.9053219151
C     -4.1872127150    8.9660327056   -0.8279550454
C     -2.0286941848   -8.9230413944   -0.0976935312
C     -1.6510277641   -4.6432499591    0.3088686167
C     -1.7684679610   -6.0670380856    0.2917074667
C     -3.0783248556   -6.6387011703    0.2977914091
C     -3.3002987062   -8.1412700436    0.2338058010
C     -1.2834457496   -0.4156094820    0.2910591933
C     -1.4033948024   -1.8261764244    0.3253782785
C     -2.6885816838   -2.4246090248    0.4177616105
C     -2.8047986127   -3.8309604701    0.4154983565
C     -0.9197194236    3.8135806477    0.1293468810
C     -1.0415923460    2.4017665014    0.1858993261
C     -2.3259768762    1.7991859123    0.2311557975
C     -2.4479001063    0.3935435686    0.3065128408
C     -0.5578493222    8.0649348231    0.0393070868
C     -0.6828830320    6.6384409675    0.0189944142
C     -1.9653604411    6.0317231680    0.0204759673
C     -2.0864362350    4.6233854194    0.0964493894
C     -0.3418531757   10.9512342953    0.1047196925
C     -1.6638083588   10.3109588211   -0.0813062935
C     -1.7691847358    8.8492044398   -0.0855031330
C      0.4244890981   -9.1596571632    0.3444522684
C      0.7892889785   -4.8648189940    0.1715950705
C      0.6595648588   -6.2812409066    0.1397217847
C     -0.6257776543   -6.8562785057    0.2586767080
C     -0.7755050243   -8.3051212513    0.4441794656
C      1.1584539555   -0.6313187096    0.2024398827
C      1.0372690784   -2.0405699145    0.2054484732
C     -0.2469335204   -2.6364530633    0.2648345984
C     -0.3692593161   -4.0509049172    0.2548441524
C      1.5233579095    3.6039366741    0.1155256981
C      1.4026249512    2.1949292287    0.1559320175
C      0.1188408842    1.5936779226    0.1937199389
C     -0.0028962475    0.1818432060    0.2312660162
C      1.8819392714    7.8511756513   -0.0080525270
C      1.7648272972    6.4318694053    0.0249482596
C      0.4792380693    5.8316324817    0.0504170432
C      0.3591455783    4.4146796754    0.0980548924
C      2.1059554116   10.7334766901   -0.0914322062
C      0.8669134933   10.1019987108    0.4661828744
C      0.7079551044    8.6462727923    0.0831628919
C      2.7962892430   -9.3820280582   -0.3357468426
C      3.2304075892   -5.0855555289   -0.0134548583
C      3.0867491497   -6.5120857806   -0.1070874814
C      1.8152213854   -7.0804184453   -0.0496388791
C      1.5752430954   -8.5212025545   -0.3948674593
C      3.5989712329   -0.8428447058    0.1264951137
C      3.4759454329   -2.2569704007    0.0935847486
C      2.1980715197   -2.8552349737    0.1359681919
C      2.0747291764   -4.2721011088    0.1031594837
C      3.9680832770    3.3941790382    0.1158563203
C      3.8464631139    1.9806289716    0.1355191613
C      2.5648887695    1.3820196134    0.1545275650
C      2.4418452155   -0.0309508794    0.1641026503
C      4.3216121434    7.6386866514   -0.0476179500
C      4.2131946161    6.2148883482    0.0324310116
C      2.9298149375    5.6194421169    0.0432597018
C      2.8094827538    4.2037419499    0.0904384478
C      4.6189275906   10.5115820244   -0.3656255996
C      3.2826492316    9.8739186064   -0.3602366095
C      3.1766709612    8.4280118924   -0.1267080514
C      5.2793069507   -9.5993785356   -0.7326348754
C      5.6833625852   -5.2812889592   -0.2836278015
C      5.5206358973   -6.7148697791   -0.3475601281
C      4.2878235910   -7.3022746571   -0.2557093078
C      4.1490337530   -8.7691773493   -0.2598172356
C      6.0422584374   -1.0569472502    0.0792005228
C      5.9201053699   -2.4663126910   -0.0098244912
C      4.6374743061   -3.0724399195    0.0022193334
C      4.5099566131   -4.4814744489   -0.0825629170
C      6.4206910895    3.1790759775    0.1185003331
C      6.2976155572    1.7664810321    0.1211588318
C      5.0075555120    1.1663842217    0.1283555678
C      4.8816060413   -0.2406893975    0.1143136527
C      6.7577333736    7.4270045208    0.0635255441
C      6.6782651779    5.9928866532    0.1213186769
C      5.3762585198    5.4022636296    0.0825847244
C      5.2574384111    3.9935728280    0.1123575470
C      7.1045894619   10.2756657104    0.3462680772
C      5.8039667261    9.6629404023   -0.1379240331
C      5.6433399357    8.2060610779   -0.0261421539
C      8.1401989685   -5.4008862661   -0.8737720407
C      8.0322270985   -6.8919498732   -0.7763872439
C      6.7363553459   -7.5371281146   -0.4601326971
C      6.6150166026   -8.9675306834   -0.8256865561
C      8.4782967392   -1.2907414111    0.1367397989
C      8.3622473236   -2.6643862164   -0.0540702624
C      7.0872895280   -3.2709219799   -0.1584461726
C      6.9251689028   -4.6645687959   -0.3865671582
C      8.8627279689    2.9435567426    0.0014558409
C      8.7514143892    1.5564389766    0.0625684826
C      7.4536755679    0.9528352590    0.1217893219
C      7.3224966680   -0.4580589480    0.1168965294
C      9.2807714337    7.2612241451    0.3699418240
C      9.1399292731    5.7882091151    0.4007799523
C      7.8141527598    5.1902207113    0.1962451487
C      7.7149182925    3.7747260109    0.1061660390
C      8.1959135044    9.4913408881   -0.3989259710
C      8.0740213467    8.0773924901    0.1351027634
C     10.8714310449   -1.5182758186    0.7656587803
C     10.7617307516   -2.9890373814    0.5560367665
C      9.6193856534   -3.4669539035   -0.2979381792
C      9.3877059166   -4.9613827321   -0.0895716998
C     11.3884376927    2.7375604421   -0.0764316916
C     11.2453530700    1.2772949264    0.1170541239
C      9.9025127730    0.6876235363    0.1603114819
C      9.7595774580   -0.6597906397    0.3258141261
C     10.3478978917    4.9691285718    0.1395090330
C     10.1701347029    3.5858928146   -0.4083034279
C     12.3761270963    0.5436001790    0.7358089702
C     12.1870333504   -0.9024646794    1.0439011629
H     -6.2238333172   -7.4007897850   -1.5875708455
O     -9.3916012517    5.1887193343   -0.3344971682
H    -10.4349779658    2.9248734999   -0.9480675936
O     -9.5642628062    0.6201961498   -1.8401211200
H     -7.6462087837   -5.9129321927    0.3285856920
H     -8.6388460291   -3.9493595576    1.0185809262
H     -6.3625860459    9.0504716156   -0.5583056335
H     -7.7657140701    7.0678065535   -0.2005444487
O     10.1483421772    3.7540571814   -1.8377734083
O     -5.6320199807   -8.9480322513   -0.1775282921
H     -2.7062029527   12.1721796647   -0.4287301667
H     -4.9662975944   11.0631579814   -0.8552010216
O     -1.8454158020   -8.9087216359   -1.5297710287
H     -0.1613727759   11.9267632340   -0.3312673343
H      7.0950106536    9.7579917787   -2.0613765192
H      2.2668108145   11.7591462497    0.2240666980
H      2.6886789329  -10.3541440767   -0.8033284646
H      4.6653704496   11.5607113006   -0.1024871566
H      7.5097726599   -9.5598471475   -0.6897294458
O     -3.7531654265   -8.5823246707    1.5153061966
H      8.7854324579   -7.4440814511   -1.3270153812
H      0.2815335085  -10.2046952436    0.0942805288
H     10.2464605826    7.6583766662    0.0841327865
H      7.7659095822    9.3879274445    2.0263141186
H     11.6670189516   -3.5791834688    0.4726452942
O      9.1958134594   -5.2232816283    1.2908120685
H     12.2554752787    3.2402005538    0.3355404936
H     11.2563152017    5.4654990357   -0.1856486378
H     13.3582601184    0.9165748734    0.4762255492
H     13.0419722901   -1.5650021938    1.0730954007
O     -9.4766058022    2.9383053742    1.0013709348
O     -7.3080171981    5.6986394861    1.3915986334
O     -5.4431087406    8.2207589347    1.2300152159
O     -1.2974932164   10.9431039289    1.2501115723
O      9.9431652950    5.1689316638    1.5298437051
O      8.6570479267    7.9601977547    1.5294990873
O     10.4465164130   -2.4626306744    1.8730882124
O     -6.1623493710   -6.8253770862    1.6034525793
O     -7.7610854080   -2.5667602496    2.4346382757
O     -0.0465665181   -8.7861511993    1.6754522281
O      3.4950597599   -9.3605982147    0.9571309379
H     -2.1669980913   -9.9275234553    0.3057807408
O     -9.1790682294   -0.2183287714    1.7254543347
O     12.1638962425    0.1201570373    2.1265346438
O      7.7927335471   -7.3488426837    0.6179331649
H      9.1853083274    9.8755527489   -0.1481844554
H     -0.8900594039   -8.8253816888   -1.7839825070
H     -9.6541433455   -1.7765523469    0.2942291774
H     -9.5027284615   -0.3302287848   -2.0517695651
H     -8.0582407368    4.3971005448   -1.6571054131
H     -9.7001580782    4.9789277274    0.5774130751
O     -6.1830309214   -4.4860179387    2.7567420947
H     -6.5304055805   -3.6757088292    3.2028572648
H    -10.7235286932    0.4930162302   -0.0667907399
O     -4.3028734556    8.5049220865   -2.1909136033
H     -3.7110533093    9.0764208708   -2.7338593181
H     10.5850231836    2.9519525737   -2.2166543065
H     -4.7353130729   -8.6907557035    1.4825704635
H     -4.0564897822   -8.8902355560   -1.7301092568
O      1.0252964094   10.1668723819    1.8942499330
H      0.1229830880   10.3000289823    2.2736157229
H     10.2548413768   -5.4842657481   -0.5099496288
H      8.6531516116   -6.0353713680    1.4347696353
O      8.3898842715   -5.0594482975   -2.2742265509
H      7.5893712601   -5.1554588167   -2.8304580330
O     10.0769691863   -3.2558369575   -1.6455875499
H      9.5132305658   -3.8144254530   -2.2404449625
O     11.6760280358    1.8352626668   -1.2301001539
O      5.4614927783   10.1402553814   -1.5371065158
O      2.4105695174   10.4075953289   -1.4834633041
O     -3.1667122483   10.8124242213   -2.0641403199
O      7.2400086151   10.1790422550    1.7598181254
O      8.0224318974    9.5336647195   -1.8115469968
H      7.1224031553   11.3273370602    0.0577422216
O      1.0064699095   -8.6092765443   -1.7576504333
H      1.5430510631   -8.1180856750   -2.4145685332
O      5.8289605982   -9.2209114535   -2.0583084849
H      5.1972867518  -10.6584856007   -0.5283979515
O      1.9304888248   -7.1663265228    1.3141130209
H      2.6749491692   -6.6781163216    1.8278100491
O      7.2627997398   -4.9237084389    0.7121111751
H      6.9788808823   -4.5345554352    1.5022175312
O      5.5800065994   -5.3468699455   -1.4440159798
H      5.1787333488   -5.8555932045   -2.1119120121
O      8.3553686142   -2.6958289146    1.0750427246
H      8.3780488968   -2.3155808449    1.9875813723
O      7.1106619835   -3.2210848331   -1.4326902628
H      7.0924324989   -3.1566903591   -2.4869439602
O     -1.7084871531   -5.9593954086    1.4524757862
H     -1.4948533773   -5.8373465538    2.2866740227
O     -6.0817527771    0.0215077046    1.7500027418
H     -6.1059207916    0.1484904289    2.6811017990
O     -7.4773726463    1.6894550323    1.3179029226
O     -5.8942584991   -2.0391414165    1.8422949314
O     -4.7897114754   -4.0946722031   -0.3779969513
O     -3.7231304646   -6.3945450783    1.3235793114
O     -0.1443168372   -6.5479593277   -0.9034659863
O     -5.8812203407    3.3950150013   -0.9405305982
O     -3.9526207447    6.6250023842   -1.0964721441
O      7.1838459969    5.4405446053   -1.0442070961
O      8.1785612106    3.1903278828   -1.0150671005
O      9.7814188004   -0.2314358056   -0.8432891369
O      1.2358800173    8.1748943329   -1.0050518513
O     -2.5088491440    8.5521612167    0.8925655484
O      3.7761955261   -6.8929171562    0.7036966085
O      6.3276467323    7.8782196045    1.0145258904
O      3.7569973469    8.1545019150    0.9042576551
O     -0.4012484252    7.7447490692    1.1026582718
H     -0.7363472581    7.3038473129    1.9754205942
O     -4.5979537964    4.9555249214   -1.1533614397
H     -4.8971800804    4.8671813011   -2.0846099854
O      8.4899997711    1.5864658356   -1.1549119949
H      7.8794879913    1.5108494759   -1.8138732910
O      8.7699480057   -1.2829747200   -1.0114730597
H      8.3979721069   -1.2414318323   -1.9797474146
O      5.6396546364   -6.6690716743    0.7649961710
H      5.3316221237   -6.0909013748    1.5015883446
