183
Coordinates from ORCA-job input-ccc-3epoxy-4-geom
  C   -8.62149669947980      0.20616703185321      0.31135364087869
  C   -8.72888469550026     -1.17209395255811      0.34038687548121
  C   -8.24057242565263      4.42642683496264      0.36471580095109
  C   -8.37379972416481      3.05069603272731      0.32834852783382
  C   -9.65758236232594      2.41073049321424      0.46817407925825
  C   -9.77538684129821      1.05737677121610      0.45917269708169
  C   -6.56536016687736     -4.22958068959462      0.22950507866030
  C   -6.65488150101905     -5.64163453630396      0.35851910187636
  C   -6.18553206811377      0.00272058988705     -0.01776514295514
  C   -6.30765233438771     -1.40926051123611      0.02639557199338
  C   -7.59033079417437     -2.00887896246154      0.21994261202009
  C   -7.69340385988333     -3.40779438983855      0.30220851116268
  C   -5.81455914152577      4.23476678811454      0.05498372008338
  C   -5.94083579144279      2.82858938055389      0.00485434606086
  C   -7.21246635433541      2.22376164323358      0.15363526631566
  C   -7.33494234784694      0.81893840692826      0.14366002724653
  C   -5.41902694687065      8.46636974316697      0.26570998203661
  C   -5.57528838306682      7.06029893328185      0.18366374100124
  C   -6.82992775420894      6.44737140846289      0.29616455512717
  C   -6.97491917062931      5.05377296801399      0.23956551346373
  C   -4.50636430331314     -8.65611535269975      0.46925488441860
  C   -4.12380332047525     -4.45192049859636     -0.01168940382897
  C   -4.23438001216882     -5.85862129878227      0.14972633546271
  C   -5.53256337203986     -6.44693399290574      0.32716518179129
  C   -5.61994701769526     -7.87817544766163      0.47518221865220
  C   -3.75734903269062     -0.21246488374413     -0.41227107750870
  C   -3.88240501684126     -1.64514336873311     -0.34546179846149
  C   -5.16000489878415     -2.22939592565156     -0.09656480132380
  C   -5.27550843444110     -3.63425766930460      0.03241774878222
  C   -3.38744059856127      4.03416700412681     -0.28915710229268
  C   -3.51306011751811      2.61626340503837     -0.34215313780645
  C   -4.78152581770108      2.01371144215276     -0.18813188890212
  C   -4.90954003385234      0.60112497666463     -0.20760160121092
  C   -2.99920854330379      8.25553291159100      0.02323646361151
  C   -3.13260718981003      6.84884849272795     -0.10929961721202
  C   -4.40961187554961      6.24623932006109     -0.00858119563233
  C   -4.54209714228760      4.84157561974717     -0.07557078800497
  C   -2.78249200648641     11.06737503689080      0.29145208689682
  C   -4.01305900364554     10.49100153657337      0.31116307807486
  C   -4.17255198179340      9.06362402997697      0.19770493528680
  C   -2.05464213984799     -8.86710538292070      0.33448452512874
  C   -1.67389144065766     -4.67180801512460     -0.23973791043350
  C   -1.79710689480755     -6.07413961931593     -0.03101998927648
  C   -3.08147175924527     -6.66136453947014      0.14028592125607
  C   -3.19187098739704     -8.08429105524185      0.31371769187210
  C   -1.34514022180926     -0.39621665375481     -0.97349168503504
  C   -1.48212975542167     -1.92129983903622     -0.86878549458637
  C   -2.76547812950533     -2.47556449090678     -0.45480355264682
  C   -2.85016249025389     -3.86005769793356     -0.23120796250995
  C   -1.00282846663842      3.81687583104789     -0.85443674190286
  C   -1.07999675608316      2.37134180741930     -0.70818706964500
  C   -2.36294413779662      1.79406708463348     -0.53938715985823
  C   -2.51517573289286      0.39951263330079     -0.60968272559311
  C   -0.56031674841358      8.05124588415522     -0.12729632059562
  C   -0.67840782739499      6.64421713129596     -0.33589250011987
  C   -1.98105741654082      6.03554889987384     -0.33497339198560
  C   -2.13938973361084      4.64950523570219     -0.47131251359486
  C   -0.32836247130793     10.84856633310135      0.19456349699103
  C   -1.58710325363286     10.27368422139726      0.16137822661620
  C   -1.72274365280781      8.85319589017187      0.00902059148097
  C   0.39892467295509     -9.08746699473652      0.25686458064384
  C   0.76959853854190     -4.90329467329970     -0.33871736589678
  C   0.64337820687355     -6.30488911806225     -0.11580557828279
  C   -0.63879151465885     -6.88698254565179      0.01465147546958
  C   -0.75830580843840     -8.30163804558006      0.20184003376124
  C   1.11693694037869     -0.64831200958031     -0.83288193353775
  C   0.96280414646589     -2.07289172817033     -0.79326017652816
  C   -0.26359043734538     -2.69471132535450     -0.66636082173528
  C   -0.39416433148986     -4.09040436953810     -0.41770907390724
  C   1.54672852343088      3.59502524084000     -0.63048013958795
  C   1.39687619609773      2.20524688052145     -0.69959917253010
  C   0.08853433496322      1.59593183811819     -0.76956773818833
  C   -0.00531233184595      0.18359516551077     -0.83898637462065
  C   1.88320147723705      7.84142493601480     -0.09528879940762
  C   1.75792093083717      6.43307922781268     -0.27265364971216
  C   0.48475932097434      5.87295538260324     -0.45598571874405
  C   0.39529157122729      4.46656613424356     -0.83347568697183
  C   2.12738642273898     10.63494314501557      0.19527438417486
  C   0.84932923504392     10.06469869266949      0.11215649619020
  C   0.72239061775983      8.64477271912704     -0.04585660694314
  C   2.85338753142121     -9.30446551699211      0.24250738815081
  C   3.20474807986418     -5.10706277149210     -0.35214942511023
  C   3.08671942336049     -6.51293904157353     -0.12676518827733
  C   1.80456787180100     -7.10590153475867     -0.03900610924671
  C   1.67810877006236     -8.52110085020185      0.15133204081102
  C   3.59628109114851     -0.82918956121883     -0.64411103836266
  C   3.52634122427253     -2.27681078028764     -0.84325513462673
  C   2.14542283492401     -2.93164339914720     -0.89512354388936
  C   2.04438196296216     -4.33903864857899     -0.50914550307369
  C   3.95655034725438      3.37741421102744     -0.34493493860649
  C   3.82984512809495      1.96632155408938     -0.44981916818873
  C   2.55022859247892      1.37145461000877     -0.62858700505241
  C   2.43538168552684     -0.04873320084764     -0.72316037521238
  C   4.32133156369080      7.61555870405592      0.00410535821908
  C   4.19440877543167      6.19884397791906     -0.12616454392700
  C   2.92054644793517      5.61131462649336     -0.28169305434157
  C   2.80129052198393      4.19383909189558     -0.41339038599948
  C   4.58471181134008     10.41560740105479      0.25348138262090
  C   3.28719735943605      9.84850380605097      0.15561110006655
  C   3.16587077706070      8.42798980221452      0.01954738555048
  C   5.30760741302091     -9.52510557855608      0.32203546544249
  C   5.65911972134457     -5.31180108644745     -0.11148509281832
  C   5.52657593142502     -6.71687967411713      0.02415483315821
  C   4.24796585110319     -7.31354303556790      0.02064494466551
  C   4.11306928691988     -8.73098021442646      0.19157338790662
  C   6.02714589616081     -1.07745622459484     -0.27984518593399
  C   5.90890564578751     -2.49553156582116     -0.26489219369575
  C   4.66110031840976     -3.11135482066495     -0.45360256034309
  C   4.50663403666473     -4.49734902961057     -0.33458644882205
  C   6.39041415600668      3.15800121858244     -0.11673272130394
  C   6.26763373135572      1.74886223632282     -0.18383032796121
  C   4.98891663001697      1.15397803405555     -0.35063820315732
  C   4.86392294767706     -0.25610060785596     -0.42206675216220
  C   6.75723797818164      7.39211230116246      0.14141067394001
  C   6.63790981650658      5.98017024743471      0.04660886756614
  C   5.35481789779252      5.38400212780042     -0.09035261803970
  C   5.23430678234584      3.97288539783455     -0.18288309156040
  C   7.04099464079067     10.20205522813093      0.34890094025960
  C   5.72215669011467      9.62997404814987      0.24184867587463
  C   5.60575712683058      8.20239304051961      0.12691634585569
  C   8.10375619819936     -5.52503955676769      0.15784865687756
  C   7.94810951908112     -6.92903882632654      0.24483515448995
  C   6.69901464205122     -7.52513768539745      0.19424070864768
  C   6.53936727771648     -8.95067341017410      0.32304926653690
  C   8.46298179266801     -1.29391615438474      0.02337610910386
  C   8.34082610988957     -2.70030338726001      0.04749686025097
  C   7.06719772550541     -3.30463695363202     -0.07441429474291
  C   6.93640929327509     -4.71014338015692     -0.01781840111270
  C   8.82769453465631      2.93980712967623      0.09532071478388
  C   8.70586631886895      1.53049959049203      0.05341263890792
  C   7.42400889814725      0.93247602969305     -0.08701859545804
  C   7.29733593023177     -0.48031338403684     -0.11894944937038
  C   9.18214818633536      7.17792511340228      0.29345403912709
  C   9.08698592048769      5.76361308708036      0.21883295811921
  C   7.79344414834107      5.16479296204120      0.09211098459226
  C   7.67422127321125      3.75596670895454      0.02151545990140
  C   8.15213772379553      9.41986053954458      0.35693048827023
  C   8.05884111198879      7.98420883665265      0.26265984513615
  C   10.90659437550438     -1.51812095126265      0.27866286104978
  C   10.77484028680862     -2.89294376399773      0.30243271854962
  C   9.50563869608449     -3.52080310432528      0.20020736026453
  C   9.36219413157364     -4.91247979747557      0.25047308365050
  C   11.26198399155932      2.70571233589440      0.30406621196685
  C   11.15425452910991      1.32787136026157      0.27974772392590
  C   9.86274658008450      0.71280142284981      0.15629543221429
  C   9.73969295989870     -0.68850470251108      0.15003852918055
  C   10.22155860898628      4.94112802641916      0.27429785822518
  C   10.11902534601682      3.54429600405048      0.22323847833416
  C   12.31219931318584      0.47525148176123      0.38370572819088
  C   12.19387201512335     -0.87811190683990      0.38627717685399
  H   -9.70216595851649     -1.63003167053371      0.47262714713418
  H   -9.12020573280825      5.04543701215066      0.49747787323404
  H   -10.53265948105737      3.03907352271777      0.58671083402047
  H   -10.74603165006703      0.58833206514035      0.57073814232098
  H   -7.63131573640836     -6.09116541869106      0.49659119947054
  H   -8.66892670524825     -3.85735375689467      0.44638119248755
  H   -6.29984237435368      9.08322574335875      0.40071468750919
  H   -7.70909632950840      7.06479798429562      0.43902911322302
  H   -4.58533878739332     -9.73069607337545      0.58654222198227
  H   -6.60115319496698     -8.32194322708618      0.59740174130491
  H   -2.67606056685876     12.14182166941428      0.38560926558254
  H   -4.90383571205571     11.09830997583345      0.42199742060286
  H   -2.14552213574386     -9.93909850933903      0.46530876717269
  H   -0.23490507274865     11.92243684473079      0.30708416875085
  H   0.30525121762797    -10.15797567837814      0.39753802315804
  H   2.22055144596078     11.70914554436070      0.30491427277343
  H   2.75959762492462    -10.37609381766576      0.37428659887362
  H   4.67920443245147     11.49139731479551      0.34497915237521
  H   5.20003750108861    -10.59809805324872      0.43028687407210
  H   7.12655704161463     11.27978090007252      0.42588148630160
  H   8.82949042524850     -7.54668932785712      0.37210092457892
  H   7.43034206447540     -9.55802892152940      0.43188796510816
  H   10.16240129527206      7.63095871698747      0.38550416971770
  H   9.13709153977001      9.86438790971127      0.44030735295385
  H   11.65741900600849     -3.51333230329393      0.40604083658420
  H   10.24320679423259     -5.53153628217683      0.37341106207056
  H   12.23971283838351      3.16383401025466      0.39752285982412
  H   11.20048285926751      5.39646831135329      0.36896383995086
  H   13.28637400866229      0.94288883248825      0.46692866870068
  H   13.07218522804041     -1.50727701921548      0.47231220781234
  O   -0.33115623947413      4.24866270141818     -2.11753568069267
  O   2.92385023927321     -2.69065388000221     -2.14931931319847
  O   -1.53831923590343     -1.23158483805633     -2.19293815818041
