186
Coordinates from ORCA-job input-ccc-3oh-1-geom
  C   -8.65170849945444      0.23179849789360     -0.11514413217846
  C   -8.75896262524282     -1.15105336825549     -0.11970209595894
  C   -8.26136699609978      4.45971736736548     -0.16420611161174
  C   -8.39935179436819      3.08126973178187     -0.13854949105589
  C   -9.68900683610889      2.44198290487197     -0.20514054166191
  C   -9.80916985270184      1.08670464247832     -0.19306484717525
  C   -6.58363286885762     -4.21652583809102     -0.05630478868297
  C   -6.68064348528975     -5.63109563273059     -0.11408530821566
  C   -6.20306245967988      0.02529814287153      0.04633427882444
  C   -6.32417446109676     -1.38456105777342      0.03536075780301
  C   -7.61539590471157     -1.98750809438002     -0.05500087209655
  C   -7.72057260742163     -3.39209231368536     -0.08698137137446
  C   -5.82088137677408      4.25967918316656     -0.00771885505576
  C   -5.95351058942427      2.85213985864498      0.02557667649470
  C   -7.23332061825595      2.25072147224284     -0.04779889546326
  C   -7.35868826887049      0.84386028621572     -0.03701933416759
  C   -5.41711721151394      8.49499614178356     -0.17737882534331
  C   -5.57580066725587      7.08383151217385     -0.11320767368299
  C   -6.83948316736603      6.47887269931341     -0.15139491022616
  C   -6.98770197548383      5.08278635812266     -0.10723311237582
  C   -4.53264264799830     -8.65882014112761     -0.16778702965661
  C   -4.13314185955211     -4.43365603405845      0.02929633378933
  C   -4.25182609683358     -5.84715941525960     -0.04292282539043
  C   -5.55421990008945     -6.44111654784132     -0.10719349087900
  C   -5.64704157289640     -7.87696511990456     -0.16731708720677
  C   -3.75507959917991     -0.18427372578225      0.25735805274647
  C   -3.88354138841605     -1.61076226450607      0.21115700624291
  C   -5.16076154077959     -2.20228480271287      0.09721331651224
  C   -5.28637570200656     -3.61782973358119      0.02804389530095
  C   -3.37501469924161      4.03990018599192      0.16109882591878
  C   -3.50785592376674      2.63038090991865      0.21234350589464
  C   -4.79162332578951      2.03354500461866      0.12834424713675
  C   -4.91829885052568      0.62747736367345      0.13966479249697
  C   -2.98844997749272      8.26971883192303     -0.08317888214247
  C   -3.12019681725632      6.85941631544530      0.00312697439114
  C   -4.40613003055585      6.26335859667727     -0.01537661173571
  C   -4.53696181015411      4.85690697717858      0.04769454682088
  C   -2.77265025931754     11.08964577526557     -0.24618004539029
  C   -4.00527678941593     10.51728082118047     -0.24100927904044
  C   -4.16867500148782      9.08667697225847     -0.16566868389451
  C   -2.07011436752177     -8.86910399807197     -0.11843270750747
  C   -1.68283056659721     -4.64593547930320      0.07378824831618
  C   -1.80777410106142     -6.06387423226763      0.00138714893219
  C   -3.09670731233085     -6.65645287370277     -0.04925453906198
  C   -3.21344840236447     -8.08395565995656     -0.11172313182821
  C   -1.32962143976309     -0.43223237939334      0.79814996200615
  C   -1.43882388461480     -1.85284939146501      0.33895994951936
  C   -2.71827307064824     -2.42977887320740      0.22492447381930
  C   -2.84398942543952     -3.83784399713184      0.10157570290532
  C   -0.93136276266377      3.80870886440318      0.33579366715566
  C   -1.06413575609317      2.41123233037469      0.44289070566314
  C   -2.35705806046601      1.81150629555635      0.35884704911029
  C   -2.50031299342079      0.41532282674696      0.40365022345082
  C   -0.54942938501572      8.05175611540455     -0.02788362129783
  C   -0.67607664758656      6.64149289746061      0.07241588496784
  C   -1.95853532891285      6.04348132193935      0.09853880415848
  C   -2.08722622877036      4.62974214873311      0.20617127001873
  C   -0.31589271294986     10.86181975185556     -0.20117676980928
  C   -1.57411991466880     10.29072236775089     -0.17976175727906
  C   -1.71216021002235      8.86275981627488     -0.09355850899753
  C   0.38844235116569     -9.08730191078595     -0.08765058899636
  C   0.76106016052225     -4.85917782441226      0.06217736212700
  C   0.63652999697506     -6.27305604015299      0.00877840463393
  C   -0.64975422594394     -6.87127668054272     -0.01911396662702
  C   -0.77306596849125     -8.29750178558654     -0.07488885008191
  C   1.13800987111179     -0.61621160829334      0.28564928729415
  C   1.01231062982879     -2.00998825692211      0.19505375603817
  C   -0.28477971869095     -2.62945485510301      0.22453569860889
  C   -0.40083565826510     -4.04586584189299      0.11082388976093
  C   1.52897881310032      3.63409872624012      0.34011178805827
  C   1.43509631341199      2.19799826391851      0.76685997098666
  C   0.08784641811939      1.57412406559260      0.52446346635083
  C   -0.00458733332152      0.20800138601646      0.49314518751130
  C   1.89706169899813      7.84242509898403     -0.02244011801811
  C   1.77105266586744      6.42339965806824      0.06857998452113
  C   0.48941285963731      5.82594214288282      0.13542592825851
  C   0.37253838170420      4.41867813584939      0.28191216741517
  C   2.14438241395910     10.64555155154244     -0.18194273433528
  C   0.86496410783256     10.07121055934542     -0.14931954764506
  C   0.73776220697365      8.64941618146241     -0.06379322362439
  C   2.84710428479008     -9.30387549735440     -0.08111225355101
  C   3.20489436803717     -5.07408457577217      0.00135437550456
  C   3.07989318366123     -6.49390154363848     -0.02127141635119
  C   1.79832269693753     -7.08677334999014     -0.02201430793091
  C   1.67012192926783     -8.51317862776295     -0.06222854015036
  C   3.55551061795952     -0.81514225842986     -0.41935177713437
  C   3.44700538016843     -2.26861004077961     -0.06906188988399
  C   2.17950122937433     -2.84021654912441      0.05699508245603
  C   2.04735174295056     -4.25949145592389      0.05347525662761
  C   3.97356953570934      3.37605197639703      0.14481827425631
  C   3.85272973463581      1.97842283067322      0.12201101891416
  C   2.56980648063290      1.35621130567890      0.25246191043106
  C   2.40953539836253      0.01037721187981      0.10149025489439
  C   4.34437487688197      7.62327832375340     -0.04463710573956
  C   4.22129202719935      6.21211821777947      0.02221088684827
  C   2.93013604037478      5.61391456176721      0.08772906141300
  C   2.79810294769726      4.20685413021171      0.19448473550858
  C   4.60593963857200     10.43060342500724     -0.17749085376559
  C   3.30415602311738      9.85751470415822     -0.14391466253994
  C   3.18029393995850      8.43510429451888     -0.06968019229104
  C   5.30823018823287     -9.52991696280940     -0.09550162633996
  C   5.65446505917432     -5.29491884914114     -0.05774532973874
  C   5.52404296581589     -6.70948680807577     -0.06228347225033
  C   4.24507581794970     -7.30396361860464     -0.05142760598072
  C   4.11019638801804     -8.73126074697283     -0.07446287921068
  C   6.02932097457057     -1.04279316186940     -0.08247071746500
  C   5.90274049785445     -2.46888867989679     -0.09786709620518
  C   4.60882890681418     -3.06544160913547     -0.07140360401475
  C   4.48886703442144     -4.48006841980247     -0.03174491970688
  C   6.42023303318069      3.17851530610043      0.04092274218204
  C   6.29914729100353      1.76845383793286      0.02002444316276
  C   5.01496505561794      1.16660508001711      0.00661891211652
  C   4.89527650251999     -0.22763677882064     -0.09338531850743
  C   6.78648698084095      7.41279227042254     -0.06545914720587
  C   6.66878302246755      6.00022467870236     -0.01423058992361
  C   5.38008160836406      5.40012190548640      0.03221826222289
  C   5.25762843809845      3.98471441723745      0.07525290968310
  C   7.06730877801032     10.22750815253848     -0.17906630732852
  C   5.74607534840873      9.64982944575666     -0.14756482482097
  C   5.63255151951515      8.21885352093864     -0.08513311401012
  C   8.10714250057550     -5.51552434754604     -0.09709943012622
  C   7.95399823206357     -6.92623754336132     -0.10028589068390
  C   6.70239676199592     -7.52459731009617     -0.08744985948726
  C   6.54245434872079     -8.95568568162599     -0.10003952423507
  C   8.48564976695566     -1.27295595199304     -0.06019688933547
  C   8.35247181098057     -2.68173614120310     -0.08402417826115
  C   7.05915149724423     -3.27889192269702     -0.09165800440038
  C   6.93412593055258     -4.69574300177516     -0.08347239105830
  C   8.86940935962269      2.96372460698678     -0.01303590818729
  C   8.74844123430263      1.55389370121990     -0.02012836894335
  C   7.45644702989748      0.95308651702576     -0.01472121256895
  C   7.32609385254014     -0.45216822219018     -0.04383439330924
  C   9.22011622901091      7.20996036758965     -0.08737218400906
  C   9.12938239540514      5.79079252664199     -0.04817147756958
  C   7.83080292893753      5.18760387754361     -0.01379890427732
  C   7.71151007424615      3.77923046304052      0.00761019457793
  C   8.18186869606913      9.44964100512861     -0.15566852774565
  C   8.09370114889180      8.01104767296017     -0.10181701897016
  C   10.93707138719567     -1.50551860279374     -0.07288275270161
  C   10.79535438295915     -2.88542922018505     -0.08976534574213
  C   9.51868518711603     -3.50486537439070     -0.09368962631951
  C   9.37305012860970     -4.90631438215794     -0.10562477696955
  C   11.31020567295804      2.72767895335915     -0.04492731437789
  C   11.19973044528803      1.34574439311220     -0.04695877294643
  C   9.90159266430099      0.73438771031538     -0.03967210792492
  C   9.77201047270453     -0.67264903453227     -0.05536674541060
  C   10.26728778547993      4.97103783090534     -0.04915453323800
  C   10.16642433264436      3.56889773032454     -0.03376524199427
  C   12.35581399536830      0.48536488003567     -0.06124675542254
  C   12.23090887165870     -0.86980516527181     -0.07293810082886
  H   -9.73903753123862     -1.60953289158504     -0.18241521417972
  H   -9.14507338976675      5.08320820622319     -0.23557253542246
  H   -10.56973413939307      3.07065784473321     -0.26795454280334
  H   -10.78683901007079      0.62186113424861     -0.24644426216643
  H   -7.66314361822456     -6.08528843909402     -0.16995905642549
  H   -8.70235305477573     -3.84651941064705     -0.15115215883953
  H   -6.30251680155614      9.11653669896824     -0.24425750900820
  H   -7.72283054183435      7.10248978724880     -0.22535422991339
  H   -4.61988601554950     -9.73824971386209     -0.21324319992426
  H   -6.63252963839951     -8.32581097795021     -0.21353342904128
  H   -2.66673024770881     12.16672018038885     -0.30550384819814
  H   -4.89670261682109     11.13134710431995     -0.29638149867848
  H   -2.16474209107574     -9.94790536076474     -0.16264259900368
  H   -0.21917891743079     11.93945115932759     -0.26525301110620
  H   0.29329092667495    -10.16635539878233     -0.12310262341353
  H   2.23893918819040     11.72364795245918     -0.24116645893620
  H   2.75117414064055    -10.38320893895859     -0.10481798273470
  H   4.69882868448045     11.50930319852616     -0.22838986803103
  H   5.20467403359798    -10.60877094260997     -0.10852640581524
  H   7.15239790750834     11.30722811995158     -0.22234019796057
  H   8.84164254360671     -7.54799352394575     -0.11478650864582
  H   7.43439207037304     -9.57124820000435     -0.11661250821569
  H   10.20176580784119      7.66871752401206     -0.11350295475278
  H   9.16701426763213      9.90098196982161     -0.18072029071863
  H   11.67974363778801     -3.51191432073079     -0.09988020422982
  H   10.25986296669109     -5.52919526067341     -0.11569787785121
  H   12.29353429479317      3.18352106255346     -0.05561030947453
  H   11.24914367814456      5.42962802082816     -0.07014480447513
  H   13.33722578186828      0.94543748006390     -0.06378148515726
  H   13.11157361174631     -1.50160497496045     -0.08404295485717
  O   -1.31506510637163     -0.48166141173785      2.26936158675821
  H   -2.13715624481053     -0.90718069011070      2.59554792536413
  O   1.52169371951115      2.20627625663897      2.23290504073706
  H   2.36980739150009      2.61121079098213      2.51515913665121
  O   3.38469399605321     -0.72351894219998     -1.87725325490708
  H   4.08103635007213     -1.24602677168118     -2.32999046152059
