183
Coordinates from ORCA-job input-ccc-3epoxy-2-geom
  C   -8.67467965724525      0.21282831092215     -0.37144618197956
  C   -8.77977390707690     -1.16594735778981     -0.45367948758779
  C   -8.28351364172417      4.44468559533972     -0.14017474148257
  C   -8.42161908499862      3.06933719989274     -0.21028740738848
  C   -9.70888140132415      2.43088310863140     -0.35017494111451
  C   -9.82900058796456      1.07800387155400     -0.42751186881712
  C   -6.59881578129017     -4.24366475546402     -0.40624596276426
  C   -6.67820055703716     -5.66693126525468     -0.48542149300900
  C   -6.23306971293234      0.00271526385488     -0.16164012607841
  C   -6.35075190941635     -1.41239810758619     -0.24417486749431
  C   -7.63684896640190     -2.01437999868776     -0.39477454704351
  C   -7.73211138013085     -3.41846460396155     -0.47525737200527
  C   -5.84474852782051      4.24188019977273      0.05151991386756
  C   -5.97982711557700      2.82986332345129     -0.00765788149984
  C   -7.25733365786398      2.23060078473230     -0.14677723468433
  C   -7.38364854470278      0.82573149166209     -0.22514911458799
  C   -5.43510457885013      8.48279302936944      0.15538386045953
  C   -5.59666407650895      7.06796930695721      0.12626028586855
  C   -6.85949609900030      6.46446317379773      0.03497060842126
  C   -7.00941861555255      5.06790278216365     -0.01517549547627
  C   -4.51197582307919     -8.68544792537317     -0.41782626360851
  C   -4.15185150795416     -4.46260053501243     -0.16478383452929
  C   -4.25510765168795     -5.87512270296223     -0.24910259415940
  C   -5.55436810811196     -6.47041927439560     -0.41284168605976
  C   -5.62752720999665     -7.91062247000240     -0.49261187240577
  C   -3.79930949066646     -0.22029783199740      0.06464647965922
  C   -3.91818496270499     -1.63782653380691     -0.00343097272282
  C   -5.19846574468462     -2.23397006664013     -0.16965308372921
  C   -5.30912977577310     -3.64372186277951     -0.24719024165693
  C   -3.39906453254929      4.01644682444037      0.23373818403952
  C   -3.53977225051996      2.60824129649516      0.21072413414634
  C   -4.82500987427836      2.00770075461176      0.06628668173176
  C   -4.95595619395236      0.60283493484607     -0.01140833654553
  C   -3.00415548413010      8.25457321408364      0.23344281590093
  C   -3.13734010237423      6.84076933032820      0.23456717323737
  C   -4.42760382085671      6.24450043536532      0.17987370341278
  C   -4.56345077811426      4.83873720267877      0.15905196299833
  C   -2.79078748197289     11.07896148055270      0.23914945891326
  C   -4.02301177855590     10.50656610186189      0.22182580557350
  C   -4.18747448455784      9.07298033971904      0.20632763687583
  C   -2.05385011265024     -8.87743611624594     -0.17924268597543
  C   -1.71308992240116     -4.67424326791784      0.09353179226665
  C   -1.82005220722644     -6.08121692103722     -0.00314725412881
  C   -3.09997049902635     -6.67633608986097     -0.16950242331176
  C   -3.19868941373019     -8.10750502087685     -0.25372599395904
  C   -1.41480752620351     -0.46731982523208      0.39072353744253
  C   -1.50943820254931     -1.87221634636642      0.33241150588082
  C   -2.77450698475151     -2.45862737048219      0.10753584993743
  C   -2.87683961277459     -3.86982793461439      0.01191497631228
  C   -0.95411435085430      3.78158231485649      0.34188060381374
  C   -1.11767246945910      2.39575935279117      0.38777675970370
  C   -2.38826192107910      1.79401794452995      0.30368370859239
  C   -2.53808351874421      0.36995049734710      0.22960936321662
  C   -0.56179152509024      8.03695775706124      0.24230871111464
  C   -0.68853390373527      6.62202706731660      0.26330462745418
  C   -1.97604341799939      6.02551904588255      0.27056491000067
  C   -2.11026926827698      4.60706838269872      0.29350991241492
  C   -0.33269904073550     10.85256401113046      0.22103030899225
  C   -1.58911488601988     10.27988184271491      0.23830037749719
  C   -1.72755761503547      8.84739674282577      0.24433231098819
  C   0.40046360946911     -9.07658800467480      0.03688649355718
  C   0.74563082744182     -4.85295793856023      0.35749091647599
  C   0.63078482980660     -6.27005686875539      0.22880559962636
  C   -0.64683711421395     -6.87281635565930      0.07116592495616
  C   -0.75980383846941     -8.29755209277435     -0.02217784919293
  C   0.79898362169106     -0.74681851236814      1.14487618080376
  C   0.89545400550011     -2.10262334385334      0.80275311895715
  C   -0.34739352631362     -2.68633143952768      0.46230867793534
  C   -0.43516226421266     -4.08252744191748      0.29309834995348
  C   1.51659309614919      3.61432739228397      0.19362645348440
  C   1.41160111187176      2.15127404027461      0.18993660423518
  C   0.05461239178158      1.51502049644775      0.35290186675889
  C   -0.17344652947444      0.10187692321628      0.70831770695696
  C   1.88587083811332      7.83220756183848      0.14960493868728
  C   1.76073377547027      6.41043499744358      0.16293179895466
  C   0.47975628674600      5.80957240475000      0.24229921125312
  C   0.36429758192494      4.38894034792531      0.27576381427009
  C   2.12902121616820     10.63835248207303      0.13927427060619
  C   0.85255723495493     10.06312313902595      0.19113482214272
  C   0.72593157549638      8.63652815293649      0.20176650850568
  C   2.85286965344065     -9.28321022503424      0.18216260722498
  C   3.20458717897864     -5.04800528223540      0.42048210556945
  C   3.07797495837119     -6.46746061351411      0.32784105225879
  C   1.79508640593214     -7.07269093792116      0.25056235564498
  C   1.67420084429665     -8.49412863021599      0.16047753054340
  C   3.75353231741622     -0.78867027646189      0.53429577869233
  C   3.48143929410475     -2.19893434263855      0.62088384297189
  C   2.14869591126694     -2.81714302557414      0.70934842327252
  C   2.03438805028879     -4.22717859326178      0.50611260866530
  C   3.96679377482306      3.41908905792395     -0.19977471987874
  C   3.81966114014315      1.97652580825783     -0.36735361318933
  C   2.66999509796669      1.41588061790906      0.32505247485946
  C   2.80282032749273      0.21592657633005      0.88272890627237
  C   4.33372789510928      7.62050668225515     -0.02700008138065
  C   4.21163863133000      6.20173209996276     -0.05327665092001
  C   2.92509499773656      5.60906591633822      0.06148350794843
  C   2.80011494465452      4.19579203988510      0.03826320172207
  C   4.59163923263117     10.42399129287814      0.00461484892507
  C   3.29304920032217      9.85134616168123      0.07504448687937
  C   3.17026836436161      8.42638424707315      0.07053651193269
  C   5.30479424689465     -9.51198464312657      0.23756344024843
  C   5.65609058086341     -5.27853854405152      0.30441219291674
  C   5.52294937611183     -6.68799050469419      0.29219296421318
  C   4.24090142475495     -7.27863200933458      0.29533545397316
  C   4.10777948635493     -8.70848564095486      0.24322746930077
  C   6.08480510819520     -1.08683044891582      0.00444883204137
  C   5.92450751209227     -2.47275851913531      0.19847501201692
  C   4.62335843387813     -3.03711535185731      0.41161561397748
  C   4.49017008226648     -4.45780220508253      0.39423443521648
  C   6.42149321879403      3.14886886871681     -0.34726726789033
  C   6.34038383408387      1.76130379654182     -0.33841304898327
  C   5.04466067166081      1.11076245713374     -0.38758759101768
  C   4.94885198878792     -0.28459054199369      0.05469481668985
  C   6.77391705575037      7.40079182622256     -0.20336385516712
  C   6.65698001472175      5.99205107165158     -0.24512846245281
  C   5.36739555851631      5.39565008892667     -0.18819315133214
  C   5.23335490351422      3.98017575057653     -0.27034476320040
  C   7.05294592514458     10.21857362547000     -0.14864463023186
  C   5.73196840227206      9.64188193887833     -0.08020343886217
  C   5.61619584812459      8.21199062113016     -0.10548596298224
  C   8.11627238879417     -5.51779432356115      0.15856121349350
  C   7.95402093152786     -6.92712003020201      0.19763966618934
  C   6.70142098431319     -7.51069407075297      0.24891635440805
  C   6.53782409310077     -8.94297688387502      0.24283997450550
  C   8.50952921597062     -1.28941092223757     -0.15038016034366
  C   8.36798182173396     -2.69986501079702     -0.02018807272891
  C   7.08769875380939     -3.29261103006412      0.13279437116710
  C   6.94956600853971     -4.69528647042405      0.21140311903756
  C   8.87149403696852      2.94904809076809     -0.37131328575635
  C   8.76430146884119      1.53638301604629     -0.32772860338922
  C   7.48238002530898      0.93631105524412     -0.28353238371890
  C   7.36166045755323     -0.47921544325802     -0.17441804400304
  C   9.20370763227528      7.19689517003831     -0.33890667224212
  C   9.11365910487510      5.77851860714093     -0.36498002008398
  C   7.82142539683926      5.17511485479808     -0.32926847188864
  C   7.71005284635751      3.76229081536943     -0.35507475231750
  C   8.16497591825233      9.44009151430274     -0.23184600705600
  C   8.07726891043438      8.00006012736836     -0.26167341954836
  C   10.96183362806038     -1.52846970644322     -0.23394350866306
  C   10.81707847536423     -2.90017856923425     -0.14548611969278
  C   9.53535108699547     -3.52531365334159     -0.03692344113848
  C   9.38470011271659     -4.91502732708400      0.05369869167895
  C   11.31955160336791      2.71103841856693     -0.42325283349250
  C   11.21833508196872      1.33296836130930     -0.37962187904039
  C   9.92167117706362      0.71127683233863     -0.31882925113866
  C   9.79671752673893     -0.68625672427603     -0.24103271261775
  C   10.26093375686665      4.95505308795132     -0.41418007561004
  C   10.16895010175625      3.55962435222536     -0.40769048108255
  C   12.37509424743816      0.46735912533357     -0.38366978934808
  C   12.25362890268523     -0.88634687068590     -0.31726583681568
  H   -9.75838018374268     -1.61860468819897     -0.56530520234222
  H   -9.16626964232428      5.07184597183177     -0.18870724193243
  H   -10.58932990394089      3.06156905436864     -0.39550479829552
  H   -10.80602015725357      0.62090593097960     -0.53451345552401
  H   -7.65269457828345     -6.12599060965480     -0.60683588980046
  H   -8.70928333153798     -3.87291461053234     -0.59223419321242
  H   -6.32006499495947      9.10794435641577      0.12613261671728
  H   -7.74214627823052      7.09197915724749     -0.01037169017342
  H   -4.59076236977887     -9.76474003429633     -0.48084073160379
  H   -6.60292244737898     -8.36711858712712     -0.61607895108860
  H   -2.68667794831650     12.15782747942661      0.24570035513928
  H   -4.91448713342743     11.12302288744074      0.21388116138055
  H   -2.13191505116652     -9.95652847427549     -0.24588031740502
  H   -0.23837736077401     11.93231891601047      0.21597043963324
  H   0.31941652104006    -10.15536111089611     -0.02956195979510
  H   2.22226224110765     11.71824423112555      0.13707721557014
  H   2.76074816537708    -10.36188395240142      0.13152721428848
  H   4.68634867260826     11.50370832489968      0.01534250628054
  H   5.19601001863204    -10.59017673000003      0.21906855824100
  H   7.14082846293045     11.29876676693394     -0.12978705986295
  H   8.83528090969827     -7.55712768454572      0.16465097174037
  H   7.42900714736350     -9.55960051004670      0.22991344087126
  H   10.18397023781966      7.65798220126208     -0.37583931179530
  H   9.14842769222108      9.89333764691707     -0.27930114555395
  H   11.69932007247654     -3.52999719527475     -0.15034307015039
  H   10.26542829313930     -5.54639239574547      0.03009758897605
  H   12.30025635056958      3.17127577526319     -0.46205880393879
  H   11.23902098780874      5.42148903045264     -0.44326784472151
  H   13.35601183575311      0.92531761594671     -0.43945392776380
  H   13.13702262662716     -1.51459146056346     -0.31925154469383
  O   0.68841422562740      1.61724176487424     -1.02525737322450
  O   1.86403967589294     -0.18409069499891      1.80876377055893
  O   4.25649218283596      1.38803895284079     -1.65825953562734
