183
Coordinates from ORCA-job input-ccc-3epoxy-5-geom
  C   -8.64558976008415      0.19303324700582      0.21688633608136
  C   -8.75830838882169     -1.18280493160949      0.17596649207172
  C   -8.23808320868448      4.40992148504507      0.43036296897372
  C   -8.37955557763078      3.03880501786082      0.34778906534180
  C   -9.67136401475649      2.40034106567468      0.42091835554753
  C   -9.79815651062744      1.04917102161479      0.35659588105692
  C   -6.58796828188683     -4.24211766490288     -0.02714862952691
  C   -6.68179230222643     -5.65953673247561      0.00932589587565
  C   -6.19932723815061     -0.00774716520690     -0.01214464732034
  C   -6.32376055085839     -1.41890311486166     -0.04121679229579
  C   -7.61701115548031     -2.02357822129687      0.05899717781969
  C   -7.72241013135417     -3.42109011096662      0.05229241600429
  C   -5.80192727653431      4.21826461684769      0.19097624352144
  C   -5.93491484462368      2.80965741592104      0.10433049619153
  C   -7.21729468244451      2.20814796305583      0.19007911794513
  C   -7.34888736706497      0.80803460515248      0.12859349610433
  C   -5.39549575695628      8.44349900400268      0.52246312586865
  C   -5.55425607760388      7.03515812230932      0.40651151363818
  C   -6.81454999979978      6.42583006617680      0.46530893809956
  C   -6.96253917858439      5.03488406125373      0.36291696827778
  C   -4.53263715244220     -8.67728847974622      0.07084656353966
  C   -4.13479603364282     -4.45494381795928     -0.18350712655978
  C   -4.25314852130493     -5.86467009770010     -0.10553463671259
  C   -5.55731215881118     -6.46208498835205     -0.01842746779854
  C   -5.64672880891434     -7.89975900065755      0.05244654883672
  C   -3.76240945733126     -0.22384794233389     -0.26831764526242
  C   -3.88411674936160     -1.63133290124633     -0.27619586427013
  C   -5.17354935440137     -2.23311874870187     -0.15297964163600
  C   -5.29395984292898     -3.64002314492091     -0.13061076907699
  C   -3.36320677460768      4.00776808640737     -0.06354625007871
  C   -3.49044646760495      2.59752761678861     -0.16610035076603
  C   -4.78176035223066      1.99699115575038     -0.06317551328806
  C   -4.91506598348992      0.59319686978818     -0.11580353869461
  C   -2.97640259257470      8.23108547238791      0.29377996576907
  C   -3.10955799637821      6.82544176054199      0.16979858974410
  C   -4.39010349835805      6.22231829522663      0.22874000306352
  C   -4.52213103779638      4.81817919090762      0.11801227633328
  C   -2.75581933900535     11.04229754871363      0.55720133830834
  C   -3.98593941367703     10.46751863622631      0.59748814271736
  C   -4.15151187606750      9.04013290620115      0.47226903080543
  C   -2.07262883910848     -8.87653581887567      0.08347453905273
  C   -1.69105184809754     -4.66746395418783     -0.29939449022012
  C   -1.81355574272999     -6.07666591567328     -0.16773940117412
  C   -3.09820388620990     -6.67104184600527     -0.09227024400411
  C   -3.21258417200132     -8.09896187334829      0.01695861282438
  C   -1.36397725670501     -0.44437857561646     -0.62873048632801
  C   -1.45313262792849     -1.83998516372464     -0.56086991160592
  C   -2.72905856350502     -2.44307183419731     -0.38353693151264
  C   -2.84955278100092     -3.85715288746349     -0.29896843054284
  C   -0.93215366532056      3.80425421314998     -0.32288392691359
  C   -1.06009680833115      2.39908680862544     -0.46041969738861
  C   -2.34561623358999      1.79481276070126     -0.36123167555991
  C   -2.48337304443582      0.37190199772415     -0.41845238653851
  C   -0.54598102562612      8.02343387057507      0.07365476040152
  C   -0.67464645395832      6.61611617044309     -0.06516595637755
  C   -1.95271345745961      6.01882757893960     -0.01071790330329
  C   -2.08498498803696      4.60770087003504     -0.13232525103928
  C   -0.30668363753234     10.82187497183701      0.36265931938149
  C   -1.56218692299706     10.25043580230163      0.38728577798676
  C   -1.70203202240562      8.82596913628455      0.24905987904646
  C   0.38411364599640     -9.08067771929207      0.18449777115560
  C   0.76012101586102     -4.87651281363833     -0.30192920140732
  C   0.63230649538397     -6.28905722984499     -0.12870363152432
  C   -0.64966679889055     -6.88342818687863     -0.09073620847712
  C   -0.77435577038251     -8.30040511769067      0.05467402011218
  C   1.14657105690972     -0.69468028985997     -1.02374282657623
  C   1.00583674437431     -2.11114686630498     -0.70596635980265
  C   -0.27441863219984     -2.66966404115543     -0.58603138725116
  C   -0.40291794594282     -4.07113799082173     -0.40351642100297
  C   1.50829379682677      3.60035595306744     -0.59644429931477
  C   1.37009525450284      2.17384997261576     -0.74983240006091
  C   0.09226016712641      1.61687133458423     -0.71010301085820
  C   -0.09505007711799      0.19088057823787     -0.97275150479066
  C   1.89425297375740      7.82022463876271     -0.11276176542057
  C   1.76714373476866      6.40727794278155     -0.28691011076808
  C   0.48599415150005      5.80858496268646     -0.25218355764321
  C   0.35292615211777      4.40247552772560     -0.38950432100202
  C   2.14396545887685     10.61180534339874      0.21655363704330
  C   0.86878287804652     10.03676163049091      0.20697509489152
  C   0.74056474368189      8.61942966705744      0.05021571559077
  C   2.83316665638722     -9.28242926851281      0.37912527538380
  C   3.20681896680036     -5.08712476322433     -0.16600991096752
  C   3.07377154634675     -6.48802783487159      0.02828750458768
  C   1.78865826685731     -7.08701541726148      0.02223477538296
  C   1.65850271689844     -8.50204533135178      0.19115516602900
  C   3.57166161290794     -0.88335199387360     -0.78485787586456
  C   3.46703554704113     -2.27232246842220     -0.61976513447805
  C   2.16673373926747     -2.88512127441690     -0.55438858708783
  C   2.04248950891901     -4.28378219174337     -0.34434032962299
  C   3.93079358779709      3.39495805870784     -0.98671328081371
  C   3.84368713394255      1.94168489579004     -0.85135395085161
  C   2.54548678388939      1.34016134789758     -0.84429683109257
  C   2.44438576798511     -0.05596179166614     -0.84886114227249
  C   4.34132391368671      7.61411027812118     -0.20113012504063
  C   4.22920745644676      6.20823705534714     -0.42382809005144
  C   2.91911530460290      5.60032768921629     -0.48329007403109
  C   2.76601286504508      4.21887744976109     -0.66677057498105
  C   4.59761010159274     10.40666189233382      0.15341503811442
  C   3.30065946742074      9.82922539989774      0.09143962306814
  C   3.17778216638590      8.41592539962181     -0.08424339864770
  C   5.27453024877253     -9.48998611289639      0.65095693308266
  C   5.63298315155373     -5.28545972132835      0.10093771185109
  C   5.49627639884250     -6.68763246091603      0.29404750001785
  C   4.22814774903687     -7.28628371562263      0.24071194904460
  C   4.08564886237775     -8.70713045646656      0.42018380447651
  C   6.11804317395518     -1.12766403155136     -0.74769792835173
  C   5.91386606997172     -2.52195173234873     -0.36811187833625
  C   4.63421999602184     -3.08443297664513     -0.40919506532719
  C   4.48590441471415     -4.48841484909348     -0.16173911041486
  C   6.45974241000903      3.15703398703541     -0.62445964140258
  C   6.30782331719884      1.77408483585598     -0.67346021504867
  C   5.00086262133043      1.19373607255566     -0.82842229293516
  C   4.87955011534533     -0.25869149635761     -0.96687869974553
  C   6.77927892311154      7.40713327559858     -0.11471723585602
  C   6.66131620677215      6.00737357937447     -0.29481787980125
  C   5.39084717111495      5.44164918804989     -0.51297375569906
  C   5.31554946696044      4.03080911227997     -0.89360708137318
  C   7.05444266383149     10.20723211089038      0.19529222551826
  C   5.73631924464079      9.63216949995388      0.08382528107325
  C   5.62227166164405      8.20856563038568     -0.08738475755821
  C   8.06176038696643     -5.47932796736022      0.47406449136123
  C   7.90271006273212     -6.88253272307165      0.64073056007100
  C   6.66471808533040     -7.48501295696062      0.55301882946437
  C   6.49967192461770     -8.90815077461507      0.71986354803822
  C   8.46986037471375     -1.26230283809256     -0.03017709921123
  C   8.32379429310733     -2.67312125595586      0.11122312415103
  C   7.04754760557240     -3.28772390138688     -0.01541052540978
  C   6.90982874208200     -4.68278400562853      0.18791120116328
  C   8.85333020685834      2.95334986452001     -0.16013123417677
  C   8.72975022439269      1.54590055616557     -0.17431982463890
  C   7.46144217059550      0.93377820107083     -0.43028693675231
  C   7.36679963078746     -0.45973030300973     -0.38053094299399
  C   9.19619461187193      7.18885653705563      0.07328690823896
  C   9.09683072038490      5.77377921692268     -0.03495773745240
  C   7.82193000734789      5.17822928459728     -0.24564277873398
  C   7.70941794903375      3.76653427578956     -0.34494364337728
  C   8.16837078557438      9.43049980662397      0.18014862816272
  C   8.07901606663646      7.99755254627225      0.04338105299951
  C   10.88094778451024     -1.48090857853540      0.46665977964042
  C   10.72941552199121     -2.84553072306205      0.57731217403346
  C   9.45965882634012     -3.47205710342673      0.42239878277261
  C   9.31093330255261     -4.85937620034292      0.58367103121672
  C   11.26496550256081      2.72726012477731      0.26482369601644
  C   11.15142067805346      1.35570557143741      0.29705563086359
  C   9.86727256846752      0.73643548475566      0.08911267543661
  C   9.73864930634398     -0.65747384628388      0.17333916118774
  C   10.23196951569555      4.95327525897155      0.09295316563940
  C   10.13148727689934      3.56214434292954      0.06135370920267
  C   12.28992068704242      0.50822955211212      0.55519502997696
  C   12.16164056153827     -0.84031866131619      0.63922201655696
  H   -9.73788140000365     -1.64127218324744      0.24607720604037
  H   -9.11691566161521      5.03191289275045      0.55454977621986
  H   -10.54671408615923      3.02982553933659      0.53173669584942
  H   -10.77598362322726      0.58534789308219      0.41512039189775
  H   -7.66247985210003     -6.11574348457669      0.07837930357485
  H   -8.70207444432035     -3.87851988014316      0.12756214578542
  H   -6.27822699366549      9.05772379323549      0.65720811827287
  H   -7.69537739351015      7.04318780598622      0.59805646314619
  H   -4.61613202658297     -9.75605434678225      0.13452840069679
  H   -6.63177171562296     -8.34924153769966      0.10118977983039
  H   -2.64690099924518     12.11620705705635      0.65527213294880
  H   -4.87340347714170     11.07576706824034      0.72840679971723
  H   -2.16385024801331     -9.95248753777342      0.17631571275171
  H   -0.20458445138813     11.89526751355073      0.47237995701503
  H   0.28877291087284    -10.15393114277631      0.30132135249379
  H   2.24168587951748     11.68412267706756      0.33960872194334
  H   2.73132952879106    -10.35362499548315      0.50872270401713
  H   4.68554129981872     11.47937736383484      0.28033482412258
  H   5.16539360562268    -10.56085745795566      0.77744535568980
  H   7.13487709662392     11.28260312713279      0.30412196023006
  H   8.77968291958353     -7.48616529432799      0.84314284591418
  H   7.38401815241439     -9.50693140751154      0.90433867304338
  H   10.17587974250974      7.63283668764244      0.20576869105330
  H   9.15176378755087      9.87545916249286      0.27781178454352
  H   11.59063117606883     -3.46444930627654      0.80015285072764
  H   10.18368680988292     -5.46091039015630      0.80914313867709
  H   12.23199445575814      3.19057291131499      0.42163110688641
  H   11.20054151253032      5.41288213735285      0.25093201877715
  H   13.25618514673892      0.97964359243854      0.69195249003136
  H   13.02342560939107     -1.46502353694688      0.84312982360984
  O   0.45537841818419     -0.27519835800423     -2.28318709375791
  O   4.65855665992724      3.82198477725123     -2.22081829061396
  O   5.64569994966765     -0.80260857053131     -2.13006175788785
